REMARK SMILES CC(C)(C)[C@H]([NH2+]Cc1ccc2c(c1)OCO2)c1cn(C[C@H](O)c2ccccc2F)nn1
REMARK SMILES IDX 17 1 18 2 19 3 30 4 31 5 5 7 2 8 1 9 3 10 4 11 6 12 7 15
REMARK SMILES IDX 8 16 9 17 13 18 10 19 12 20 11 21 14 22 16 23 15 24 20 25
REMARK SMILES IDX 21 26 22 27 23 29 24 30 28 31 25 32 27 33 26 34 29 35
REMARK H PARENT 18 6 6 13 6 14 22 28
ROOT
ATOM     1   C14 UNL     1      -0.531   0.534  -1.414  1.00  0.00     0.127 A   
ATOM     2   C15 UNL     1      -0.636  -0.135  -2.614  1.00  0.00     0.046 A   
ATOM     3   N2  UNL     1       0.602   0.008  -3.176  1.00  0.00    -0.209 N   
ATOM     4   N3  UNL     1       1.413   0.730  -2.383  1.00  0.00    -0.076 NA  
ATOM     5   N4  UNL     1       0.732   1.058  -1.300  1.00  0.00    -0.132 NA  
ATOM     6   H20 UNL     1      -1.425  -0.705  -3.084  1.00  0.00     0.083 HD  
ENDROOT
BRANCH   1   7
ATOM     7   C5  UNL     1      -1.477   0.659  -0.259  1.00  0.00     0.120 C   
BRANCH   7   8
ATOM     8   C2  UNL     1      -2.340   1.967  -0.267  1.00  0.00     0.010 C   
ATOM     9   C1  UNL     1      -3.129   2.076  -1.593  1.00  0.00     0.017 C   
ATOM     10  C3  UNL     1      -3.384   1.926   0.874  1.00  0.00     0.017 C   
ATOM     11  C4  UNL     1      -1.492   3.243  -0.101  1.00  0.00     0.017 C   
ENDBRANCH   7   8
BRANCH   7  12
ATOM     12  N1  UNL     1      -0.672   0.562   1.017  1.00  0.00     0.250 N   
ATOM     13  H11 UNL     1       0.160   1.158   0.879  1.00  0.00     0.199 HD  
ATOM     14  H12 UNL     1      -1.162   0.945   1.829  1.00  0.00     0.199 HD  
BRANCH  12  15
ATOM     15  C6  UNL     1      -0.172  -0.802   1.349  1.00  0.00     0.164 C   
BRANCH  15  16
ATOM     16  C7  UNL     1       0.763  -0.747   2.523  1.00  0.00    -0.002 A   
ATOM     17  C8  UNL     1       2.144  -0.510   2.315  1.00  0.00     0.012 A   
ATOM     18  C12 UNL     1       0.270  -0.876   3.832  1.00  0.00     0.045 A   
ATOM     19  C9  UNL     1       3.026  -0.412   3.397  1.00  0.00     0.037 A   
ATOM     20  C11 UNL     1       1.168  -0.775   4.875  1.00  0.00     0.109 A   
ATOM     21  C10 UNL     1       2.506  -0.549   4.665  1.00  0.00     0.108 A   
ATOM     22  O1  UNL     1       0.859  -0.875   6.195  1.00  0.00    -0.316 OA  
ATOM     23  O2  UNL     1       3.209  -0.479   5.825  1.00  0.00    -0.316 OA  
ATOM     24  C13 UNL     1       2.165  -0.710   6.795  1.00  0.00     0.337 C   
ENDBRANCH  15  16
ENDBRANCH  12  15
ENDBRANCH   7  12
ENDBRANCH   1   7
BRANCH   3  25
ATOM     25  C16 UNL     1       1.099  -0.563  -4.407  1.00  0.00     0.170 C   
BRANCH  25  26
ATOM     26  C17 UNL     1       1.964  -1.807  -4.173  1.00  0.00     0.167 C   
BRANCH  26  27
ATOM     27  O3  UNL     1       2.613  -2.139  -5.406  1.00  0.00    -0.387 OA  
ATOM     28  H24 UNL     1       3.140  -2.944  -5.249  1.00  0.00     0.211 HD  
ENDBRANCH  26  27
BRANCH  26  29
ATOM     29  C18 UNL     1       1.161  -2.999  -3.698  1.00  0.00     0.018 A   
ATOM     30  C19 UNL     1       0.443  -3.804  -4.597  1.00  0.00     0.009 A   
ATOM     31  C23 UNL     1       1.090  -3.307  -2.334  1.00  0.00     0.129 A   
ATOM     32  C20 UNL     1      -0.303  -4.893  -4.137  1.00  0.00     0.001 A   
ATOM     33  C22 UNL     1       0.352  -4.393  -1.870  1.00  0.00     0.039 A   
ATOM     34  C21 UNL     1      -0.346  -5.190  -2.775  1.00  0.00     0.003 A   
ATOM     35  F1  UNL     1       1.718  -2.532  -1.438  1.00  0.00    -0.207 F   
ENDBRANCH  26  29
ENDBRANCH  25  26
ENDBRANCH   3  25
TORSDOF 9
