REMARK SMILES OC[C@H](c1ccc(F)cc1)n1cc([C@@H]([NH2+]Cc2ccc3c(c2)OCO3)C2CCCC2)nn1
REMARK SMILES IDX 11 1 12 2 13 3 31 4 32 5 3 7 2 8 1 9 4 11 5 12 10 13 6 14
REMARK SMILES IDX 9 15 7 16 8 17 14 18 15 19 16 22 17 23 18 24 22 25 19 26
REMARK SMILES IDX 21 27 20 28 23 29 25 30 24 31 26 32 27 33 30 34 28 35 29 36
REMARK H PARENT 12 6 1 10 15 20 15 21
ROOT
ATOM     1   N1  UNL     1       0.243  -1.483  -1.907  1.00  0.00    -0.202 N   
ATOM     2   C9  UNL     1       0.007  -1.697  -0.574  1.00  0.00     0.046 A   
ATOM     3   C10 UNL     1      -0.817  -0.658  -0.206  1.00  0.00     0.127 A   
ATOM     4   N3  UNL     1      -1.019   0.162  -1.286  1.00  0.00    -0.132 NA  
ATOM     5   N4  UNL     1      -0.363  -0.345  -2.316  1.00  0.00    -0.075 NA  
ATOM     6   H9  UNL     1       0.439  -2.532  -0.040  1.00  0.00     0.083 HD  
ENDROOT
BRANCH   1   7
ATOM     7   C2  UNL     1       1.092  -2.236  -2.830  1.00  0.00     0.155 C   
BRANCH   7   8
ATOM     8   C1  UNL     1       0.606  -3.688  -3.031  1.00  0.00     0.185 C   
BRANCH   8   9
ATOM     9   O1  UNL     1       0.558  -4.449  -1.823  1.00  0.00    -0.394 OA  
ATOM     10  H1  UNL     1       0.299  -5.359  -2.069  1.00  0.00     0.210 HD  
ENDBRANCH   8   9
ENDBRANCH   7   8
BRANCH   7  11
ATOM     11  C3  UNL     1       2.562  -2.034  -2.467  1.00  0.00    -0.023 A   
ATOM     12  C4  UNL     1       3.221  -0.876  -2.938  1.00  0.00     0.009 A   
ATOM     13  C8  UNL     1       3.282  -2.928  -1.653  1.00  0.00     0.009 A   
ATOM     14  C5  UNL     1       4.557  -0.628  -2.611  1.00  0.00     0.039 A   
ATOM     15  C7  UNL     1       4.619  -2.677  -1.328  1.00  0.00     0.039 A   
ATOM     16  C6  UNL     1       5.244  -1.531  -1.809  1.00  0.00     0.123 A   
ATOM     17  F1  UNL     1       6.522  -1.291  -1.488  1.00  0.00    -0.207 F   
ENDBRANCH   7  11
ENDBRANCH   1   7
BRANCH   3  18
ATOM     18  C11 UNL     1      -1.395  -0.281   1.119  1.00  0.00     0.117 C   
BRANCH  18  19
ATOM     19  N2  UNL     1      -1.345   1.216   1.277  1.00  0.00     0.249 N   
ATOM     20  H11 UNL     1      -2.047   1.566   1.938  1.00  0.00     0.199 HD  
ATOM     21  H12 UNL     1      -1.595   1.615   0.357  1.00  0.00     0.199 HD  
BRANCH  19  22
ATOM     22  C12 UNL     1      -0.008   1.760   1.638  1.00  0.00     0.164 C   
BRANCH  22  23
ATOM     23  C13 UNL     1      -0.009   3.260   1.572  1.00  0.00    -0.002 A   
ATOM     24  C14 UNL     1       0.256   3.914   0.342  1.00  0.00     0.012 A   
ATOM     25  C18 UNL     1      -0.310   4.023   2.711  1.00  0.00     0.045 A   
ATOM     26  C15 UNL     1       0.242   5.310   0.253  1.00  0.00     0.037 A   
ATOM     27  C17 UNL     1      -0.319   5.398   2.586  1.00  0.00     0.109 A   
ATOM     28  C16 UNL     1      -0.047   6.024   1.394  1.00  0.00     0.108 A   
ATOM     29  O2  UNL     1      -0.588   6.280   3.586  1.00  0.00    -0.316 OA  
ATOM     30  O3  UNL     1      -0.096   7.378   1.496  1.00  0.00    -0.316 OA  
ATOM     31  C19 UNL     1      -0.404   7.540   2.896  1.00  0.00     0.337 C   
ENDBRANCH  22  23
ENDBRANCH  19  22
ENDBRANCH  18  19
BRANCH  18  32
ATOM     32  C20 UNL     1      -2.837  -0.797   1.292  1.00  0.00     0.043 C   
ATOM     33  C21 UNL     1      -3.893  -0.164   0.375  1.00  0.00     0.010 C   
ATOM     34  C24 UNL     1      -3.393  -0.630   2.721  1.00  0.00     0.010 C   
ATOM     35  C22 UNL     1      -5.195  -0.377   1.132  1.00  0.00     0.001 C   
ATOM     36  C23 UNL     1      -4.806  -0.071   2.569  1.00  0.00     0.001 C   
ENDBRANCH  18  32
ENDBRANCH   3  18
TORSDOF 9
