REMARK SMILES OC[C@@H](c1ccc(F)cc1)n1cc([C@@H]([NH2+]Cc2ccc3c(c2)OCO3)C2CCCC2)nn1
REMARK SMILES IDX 11 1 12 2 13 3 31 4 32 5 3 7 2 8 1 9 4 11 5 12 10 13 6 14
REMARK SMILES IDX 9 15 7 16 8 17 14 18 15 19 16 22 17 23 18 24 22 25 19 26
REMARK SMILES IDX 21 27 20 28 23 29 25 30 24 31 26 32 27 33 30 34 28 35 29 36
REMARK H PARENT 12 6 1 10 15 20 15 21
ROOT
ATOM     1   N1  UNL     1      -2.592  -2.117   0.382  1.00  0.00    -0.202 N   
ATOM     2   C9  UNL     1      -1.508  -1.409  -0.063  1.00  0.00     0.046 A   
ATOM     3   C10 UNL     1      -1.524  -0.254   0.684  1.00  0.00     0.127 A   
ATOM     4   N3  UNL     1      -2.607  -0.280   1.525  1.00  0.00    -0.132 NA  
ATOM     5   N4  UNL     1      -3.265  -1.409   1.317  1.00  0.00    -0.075 NA  
ATOM     6   H9  UNL     1      -0.844  -1.790  -0.826  1.00  0.00     0.083 HD  
ENDROOT
BRANCH   1   7
ATOM     7   C2  UNL     1      -3.022  -3.470   0.035  1.00  0.00     0.155 C   
BRANCH   7   8
ATOM     8   C1  UNL     1      -3.349  -3.639  -1.468  1.00  0.00     0.185 C   
BRANCH   8   9
ATOM     9   O1  UNL     1      -2.264  -3.311  -2.336  1.00  0.00    -0.394 OA  
ATOM     10  H1  UNL     1      -2.527  -3.578  -3.240  1.00  0.00     0.210 HD  
ENDBRANCH   8   9
ENDBRANCH   7   8
BRANCH   7  11
ATOM     11  C3  UNL     1      -2.069  -4.489   0.653  1.00  0.00    -0.023 A   
ATOM     12  C4  UNL     1      -0.944  -4.992  -0.026  1.00  0.00     0.009 A   
ATOM     13  C8  UNL     1      -2.299  -4.915   1.982  1.00  0.00     0.009 A   
ATOM     14  C5  UNL     1      -0.083  -5.897   0.600  1.00  0.00     0.039 A   
ATOM     15  C7  UNL     1      -1.437  -5.821   2.603  1.00  0.00     0.039 A   
ATOM     16  C6  UNL     1      -0.337  -6.304   1.906  1.00  0.00     0.123 A   
ATOM     17  F1  UNL     1       0.502  -7.159   2.502  1.00  0.00    -0.207 F   
ENDBRANCH   7  11
ENDBRANCH   1   7
BRANCH   3  18
ATOM     18  C11 UNL     1      -0.608   0.928   0.680  1.00  0.00     0.117 C   
BRANCH  18  19
ATOM     19  N2  UNL     1      -1.310   2.132   1.278  1.00  0.00     0.249 N   
ATOM     20  H11 UNL     1      -1.746   1.800   2.151  1.00  0.00     0.199 HD  
ATOM     21  H12 UNL     1      -0.636   2.859   1.531  1.00  0.00     0.199 HD  
BRANCH  19  22
ATOM     22  C12 UNL     1      -2.391   2.745   0.451  1.00  0.00     0.164 C   
BRANCH  22  23
ATOM     23  C13 UNL     1      -1.874   3.386  -0.808  1.00  0.00    -0.002 A   
ATOM     24  C14 UNL     1      -1.122   4.584  -0.750  1.00  0.00     0.012 A   
ATOM     25  C18 UNL     1      -2.119   2.785  -2.054  1.00  0.00     0.045 A   
ATOM     26  C15 UNL     1      -0.618   5.175  -1.914  1.00  0.00     0.037 A   
ATOM     27  C17 UNL     1      -1.609   3.394  -3.183  1.00  0.00     0.109 A   
ATOM     28  C16 UNL     1      -0.879   4.554  -3.115  1.00  0.00     0.108 A   
ATOM     29  O2  UNL     1      -1.759   2.947  -4.457  1.00  0.00    -0.316 OA  
ATOM     30  O3  UNL     1      -0.481   4.989  -4.338  1.00  0.00    -0.316 OA  
ATOM     31  C19 UNL     1      -1.047   3.970  -5.191  1.00  0.00     0.337 C   
ENDBRANCH  22  23
ENDBRANCH  19  22
ENDBRANCH  18  19
BRANCH  18  32
ATOM     32  C20 UNL     1       0.683   0.678   1.490  1.00  0.00     0.043 C   
ATOM     33  C21 UNL     1       1.670   1.856   1.461  1.00  0.00     0.010 C   
ATOM     34  C24 UNL     1       1.538  -0.472   0.944  1.00  0.00     0.010 C   
ATOM     35  C22 UNL     1       3.058   1.256   1.686  1.00  0.00     0.001 C   
ATOM     36  C23 UNL     1       2.894  -0.256   1.597  1.00  0.00     0.001 C   
ENDBRANCH  18  32
ENDBRANCH   3  18
TORSDOF 9
