REMARK SMILES Cc1ccsc1[C@@H](CO)n1cc([C@@H]([NH2+]Cc2ccc3c(c2)OCO3)C(C)(C)C)nn1
REMARK SMILES IDX 10 1 11 2 12 3 29 4 30 5 7 7 6 8 2 9 3 10 4 11 5 12 1 13
REMARK SMILES IDX 8 14 9 15 13 17 14 18 15 21 16 22 17 23 21 24 18 25 20 26
REMARK SMILES IDX 19 27 22 28 24 29 23 30 25 31 26 32 27 33 28 34
REMARK H PARENT 11 6 9 16 14 19 14 20
ROOT
ATOM     1   N1  UNL     1      -1.077   1.461  -1.475  1.00  0.00    -0.202 N   
ATOM     2   C8  UNL     1      -1.276   0.106  -1.527  1.00  0.00     0.046 A   
ATOM     3   C9  UNL     1      -0.625  -0.375  -0.414  1.00  0.00     0.127 A   
ATOM     4   N3  UNL     1      -0.021   0.669   0.239  1.00  0.00    -0.132 NA  
ATOM     5   N4  UNL     1      -0.288   1.779  -0.424  1.00  0.00    -0.075 NA  
ATOM     6   H10 UNL     1      -1.850  -0.368  -2.311  1.00  0.00     0.083 HD  
ENDROOT
BRANCH   1   7
ATOM     7   C6  UNL     1      -1.549   2.512  -2.378  1.00  0.00     0.162 C   
BRANCH   7   8
ATOM     8   C5  UNL     1      -0.584   2.666  -3.543  1.00  0.00     0.017 A   
ATOM     9   C2  UNL     1       0.338   3.685  -3.758  1.00  0.00    -0.039 A   
ATOM     10  C3  UNL     1       1.066   3.479  -4.977  1.00  0.00     0.011 A   
ATOM     11  C4  UNL     1       0.688   2.336  -5.639  1.00  0.00     0.046 A   
ATOM     12  S1  UNL     1      -0.532   1.494  -4.803  1.00  0.00    -0.100 S   
ATOM     13  C1  UNL     1       0.563   4.854  -2.851  1.00  0.00     0.045 C   
ENDBRANCH   7   8
BRANCH   7  14
ATOM     14  C7  UNL     1      -3.012   2.331  -2.825  1.00  0.00     0.186 C   
BRANCH  14  15
ATOM     15  O1  UNL     1      -3.896   2.399  -1.706  1.00  0.00    -0.394 OA  
ATOM     16  H9  UNL     1      -4.806   2.469  -2.052  1.00  0.00     0.210 HD  
ENDBRANCH  14  15
ENDBRANCH   7  14
ENDBRANCH   1   7
BRANCH   3  17
ATOM     17  C10 UNL     1      -0.420  -1.769   0.100  1.00  0.00     0.120 C   
BRANCH  17  18
ATOM     18  N2  UNL     1       0.930  -1.824   0.779  1.00  0.00     0.250 N   
ATOM     19  H12 UNL     1       1.009  -0.949   1.323  1.00  0.00     0.199 HD  
ATOM     20  H13 UNL     1       1.012  -2.586   1.457  1.00  0.00     0.199 HD  
BRANCH  18  21
ATOM     21  C11 UNL     1       2.101  -1.864  -0.141  1.00  0.00     0.164 C   
BRANCH  21  22
ATOM     22  C12 UNL     1       3.379  -1.710   0.633  1.00  0.00    -0.002 A   
ATOM     23  C13 UNL     1       3.875  -0.415   0.925  1.00  0.00     0.012 A   
ATOM     24  C17 UNL     1       4.058  -2.839   1.120  1.00  0.00     0.045 A   
ATOM     25  C14 UNL     1       5.039  -0.246   1.681  1.00  0.00     0.037 A   
ATOM     26  C16 UNL     1       5.202  -2.635   1.864  1.00  0.00     0.109 A   
ATOM     27  C15 UNL     1       5.678  -1.377   2.137  1.00  0.00     0.108 A   
ATOM     28  O2  UNL     1       5.974  -3.613   2.408  1.00  0.00    -0.316 OA  
ATOM     29  O3  UNL     1       6.813  -1.402   2.883  1.00  0.00    -0.316 OA  
ATOM     30  C18 UNL     1       7.004  -2.824   3.047  1.00  0.00     0.337 C   
ENDBRANCH  21  22
ENDBRANCH  18  21
ENDBRANCH  17  18
BRANCH  17  31
ATOM     31  C19 UNL     1      -1.542  -2.267   1.075  1.00  0.00     0.010 C   
ATOM     32  C20 UNL     1      -2.921  -2.204   0.378  1.00  0.00     0.017 C   
ATOM     33  C21 UNL     1      -1.304  -3.746   1.459  1.00  0.00     0.017 C   
ATOM     34  C22 UNL     1      -1.615  -1.436   2.371  1.00  0.00     0.017 C   
ENDBRANCH  17  31
ENDBRANCH   3  17
TORSDOF 9
