REMARK SMILES Cc1ccsc1[C@H](CO)n1cc([C@@H]([NH2+]Cc2ccc3c(c2)OCO3)C(C)(C)C)nn1
REMARK SMILES IDX 10 1 11 2 12 3 29 4 30 5 7 7 6 8 2 9 3 10 4 11 5 12 1 13
REMARK SMILES IDX 8 14 9 15 13 17 14 18 15 21 16 22 17 23 21 24 18 25 20 26
REMARK SMILES IDX 19 27 22 28 24 29 23 30 25 31 26 32 27 33 28 34
REMARK H PARENT 11 6 9 16 14 19 14 20
ROOT
ATOM     1   N1  UNL     1       0.648  -2.076   2.064  1.00  0.00    -0.202 N   
ATOM     2   C8  UNL     1      -0.490  -1.341   2.291  1.00  0.00     0.046 A   
ATOM     3   C9  UNL     1      -0.725  -0.705   1.093  1.00  0.00     0.127 A   
ATOM     4   N3  UNL     1       0.260  -1.049   0.200  1.00  0.00    -0.132 NA  
ATOM     5   N4  UNL     1       1.092  -1.882   0.803  1.00  0.00    -0.075 NA  
ATOM     6   H10 UNL     1      -0.991  -1.335   3.252  1.00  0.00     0.083 HD  
ENDROOT
BRANCH   1   7
ATOM     7   C6  UNL     1       1.379  -2.905   3.025  1.00  0.00     0.162 C   
BRANCH   7   8
ATOM     8   C5  UNL     1       2.618  -2.164   3.502  1.00  0.00     0.017 A   
ATOM     9   C2  UNL     1       3.896  -2.053   2.954  1.00  0.00    -0.039 A   
ATOM     10  C3  UNL     1       4.739  -1.228   3.774  1.00  0.00     0.011 A   
ATOM     11  C4  UNL     1       4.098  -0.736   4.883  1.00  0.00     0.046 A   
ATOM     12  S1  UNL     1       2.481  -1.256   4.962  1.00  0.00    -0.100 S   
ATOM     13  C1  UNL     1       4.386  -2.691   1.694  1.00  0.00     0.045 C   
ENDBRANCH   7   8
BRANCH   7  14
ATOM     14  C7  UNL     1       1.648  -4.319   2.495  1.00  0.00     0.186 C   
BRANCH  14  15
ATOM     15  O1  UNL     1       0.434  -5.076   2.475  1.00  0.00    -0.394 OA  
ATOM     16  H9  UNL     1       0.664  -5.995   2.236  1.00  0.00     0.210 HD  
ENDBRANCH  14  15
ENDBRANCH   7  14
ENDBRANCH   1   7
BRANCH   3  17
ATOM     17  C10 UNL     1      -1.751   0.313   0.695  1.00  0.00     0.120 C   
BRANCH  17  18
ATOM     18  N2  UNL     1      -1.083   1.320  -0.214  1.00  0.00     0.250 N   
ATOM     19  H12 UNL     1      -1.745   1.841  -0.794  1.00  0.00     0.199 HD  
ATOM     20  H13 UNL     1      -0.502   0.772  -0.869  1.00  0.00     0.199 HD  
BRANCH  18  21
ATOM     21  C11 UNL     1      -0.176   2.283   0.471  1.00  0.00     0.164 C   
BRANCH  21  22
ATOM     22  C12 UNL     1       0.638   3.054  -0.528  1.00  0.00    -0.002 A   
ATOM     23  C13 UNL     1       0.211   4.323  -0.985  1.00  0.00     0.012 A   
ATOM     24  C17 UNL     1       1.817   2.490  -1.047  1.00  0.00     0.045 A   
ATOM     25  C14 UNL     1       0.955   5.029  -1.936  1.00  0.00     0.037 A   
ATOM     26  C16 UNL     1       2.529   3.216  -1.977  1.00  0.00     0.109 A   
ATOM     27  C15 UNL     1       2.111   4.450  -2.409  1.00  0.00     0.108 A   
ATOM     28  O2  UNL     1       3.690   2.824  -2.564  1.00  0.00    -0.316 OA  
ATOM     29  O3  UNL     1       2.957   4.992  -3.322  1.00  0.00    -0.316 OA  
ATOM     30  C18 UNL     1       3.977   3.972  -3.393  1.00  0.00     0.337 C   
ENDBRANCH  21  22
ENDBRANCH  18  21
ENDBRANCH  17  18
BRANCH  17  31
ATOM     31  C19 UNL     1      -3.025  -0.287   0.011  1.00  0.00     0.010 C   
ATOM     32  C20 UNL     1      -4.085   0.818  -0.204  1.00  0.00     0.017 C   
ATOM     33  C21 UNL     1      -2.721  -0.940  -1.351  1.00  0.00     0.017 C   
ATOM     34  C22 UNL     1      -3.667  -1.353   0.928  1.00  0.00     0.017 C   
ENDBRANCH  17  31
ENDBRANCH   3  17
TORSDOF 9
