REMARK SMILES CC(C)C[C@H]([NH2+]Cc1ccc2c(c1)OCO2)c1cn(CCc2ccc3[nH]cnc3c2)nn1
REMARK SMILES IDX 17 1 18 2 19 3 31 4 32 5 5 7 4 8 2 9 1 10 3 11 6 12 7 15
REMARK SMILES IDX 8 16 9 17 13 18 10 19 12 20 11 21 14 22 16 23 15 24 20 25
REMARK SMILES IDX 21 26 22 27 23 28 30 29 24 30 29 31 25 32 28 33 26 34 27 35
REMARK H PARENT 18 6 6 13 6 14 26 36
ROOT
ATOM     1   C14 UNL     1      -0.820   0.832   2.147  1.00  0.00     0.127 A   
ATOM     2   C15 UNL     1      -0.789   2.175   2.447  1.00  0.00     0.045 A   
ATOM     3   N2  UNL     1       0.417   2.343   3.071  1.00  0.00    -0.212 N   
ATOM     4   N5  UNL     1       1.054   1.165   3.214  1.00  0.00    -0.076 NA  
ATOM     5   N6  UNL     1       0.304   0.230   2.652  1.00  0.00    -0.132 NA  
ATOM     6   H20 UNL     1      -1.442   3.005   2.213  1.00  0.00     0.083 HD  
ENDROOT
BRANCH   1   7
ATOM     7   C5  UNL     1      -1.796   0.040   1.339  1.00  0.00     0.114 C   
BRANCH   7   8
ATOM     8   C4  UNL     1      -2.792  -0.707   2.252  1.00  0.00     0.064 C   
BRANCH   8   9
ATOM     9   C2  UNL     1      -4.221  -0.894   1.701  1.00  0.00    -0.012 C   
ATOM     10  C1  UNL     1      -4.280  -1.694   0.404  1.00  0.00     0.007 C   
ATOM     11  C3  UNL     1      -4.952   0.440   1.542  1.00  0.00     0.007 C   
ENDBRANCH   8   9
ENDBRANCH   7   8
BRANCH   7  12
ATOM     12  N1  UNL     1      -1.069  -0.971   0.490  1.00  0.00     0.249 N   
ATOM     13  H11 UNL     1      -0.430  -1.483   1.111  1.00  0.00     0.199 HD  
ATOM     14  H12 UNL     1      -1.708  -1.659   0.087  1.00  0.00     0.199 HD  
BRANCH  12  15
ATOM     15  C6  UNL     1      -0.241  -0.400  -0.619  1.00  0.00     0.164 C   
BRANCH  15  16
ATOM     16  C7  UNL     1       0.289  -1.499  -1.500  1.00  0.00    -0.002 A   
ATOM     17  C8  UNL     1       1.264  -2.408  -1.007  1.00  0.00     0.012 A   
ATOM     18  C12 UNL     1      -0.201  -1.647  -2.813  1.00  0.00     0.045 A   
ATOM     19  C9  UNL     1       1.727  -3.465  -1.801  1.00  0.00     0.037 A   
ATOM     20  C11 UNL     1       0.286  -2.691  -3.573  1.00  0.00     0.109 A   
ATOM     21  C10 UNL     1       1.214  -3.580  -3.079  1.00  0.00     0.108 A   
ATOM     22  O1  UNL     1      -0.083  -2.976  -4.849  1.00  0.00    -0.316 OA  
ATOM     23  O2  UNL     1       1.530  -4.549  -3.977  1.00  0.00    -0.316 OA  
ATOM     24  C13 UNL     1       0.735  -4.140  -5.114  1.00  0.00     0.337 C   
ENDBRANCH  15  16
ENDBRANCH  12  15
ENDBRANCH   7  12
ENDBRANCH   1   7
BRANCH   3  25
ATOM     25  C16 UNL     1       1.078   3.590   3.402  1.00  0.00     0.139 C   
BRANCH  25  26
ATOM     26  C17 UNL     1       2.143   3.996   2.373  1.00  0.00     0.057 C   
BRANCH  26  27
ATOM     27  C18 UNL     1       1.571   4.203   0.986  1.00  0.00    -0.044 A   
ATOM     28  C19 UNL     1       1.101   5.460   0.579  1.00  0.00     0.006 A   
ATOM     29  C24 UNL     1       1.458   3.101   0.117  1.00  0.00     0.034 A   
ATOM     30  C20 UNL     1       0.515   5.653  -0.681  1.00  0.00     0.026 A   
ATOM     31  C23 UNL     1       0.818   3.263  -1.118  1.00  0.00     0.086 A   
ATOM     32  C21 UNL     1       0.383   4.527  -1.495  1.00  0.00     0.057 A   
ATOM     33  N4  UNL     1       0.503   2.325  -2.074  1.00  0.00    -0.239 NA  
ATOM     34  N3  UNL     1      -0.128   4.346  -2.756  1.00  0.00    -0.304 N   
ATOM     35  C22 UNL     1      -0.024   3.017  -3.062  1.00  0.00     0.186 A   
ATOM     36  H27 UNL     1      -0.490   5.072  -3.362  1.00  0.00     0.154 HD  
ENDBRANCH  26  27
ENDBRANCH  25  26
ENDBRANCH   3  25
TORSDOF 9
