REMARK SMILES COc1cccc(CCn2cc([C@@H]([NH2+]Cc3ccc4c(c3)OCO4)C(C)(C)C)nn2)n1
REMARK SMILES IDX 10 1 11 2 12 3 29 4 30 5 9 7 8 8 7 9 3 10 4 11 31 12 5 13
REMARK SMILES IDX 6 14 2 15 1 16 13 17 14 18 15 21 16 22 17 23 21 24 18 25
REMARK SMILES IDX 20 26 19 27 22 28 24 29 23 30 25 31 26 32 27 33 28 34
REMARK H PARENT 11 6 14 19 14 20
ROOT
ATOM     1   N1  UNL     1      -2.079  -2.252  -0.720  1.00  0.00    -0.212 N   
ATOM     2   C9  UNL     1      -0.774  -2.240  -0.320  1.00  0.00     0.045 A   
ATOM     3   C10 UNL     1      -0.848  -2.254   1.055  1.00  0.00     0.127 A   
ATOM     4   N3  UNL     1      -2.166  -2.279   1.435  1.00  0.00    -0.132 NA  
ATOM     5   N4  UNL     1      -2.909  -2.285   0.340  1.00  0.00    -0.076 NA  
ATOM     6   H11 UNL     1       0.045  -2.187  -1.023  1.00  0.00     0.083 HD  
ENDROOT
BRANCH   1   7
ATOM     7   C8  UNL     1      -2.603  -2.208  -2.070  1.00  0.00     0.140 C   
BRANCH   7   8
ATOM     8   C7  UNL     1      -3.373  -0.923  -2.373  1.00  0.00     0.077 C   
BRANCH   8   9
ATOM     9   C6  UNL     1      -2.538   0.334  -2.303  1.00  0.00     0.045 A   
ATOM     10  C2  UNL     1      -0.483   1.372  -2.524  1.00  0.00     0.166 A   
ATOM     11  C3  UNL     1      -1.018   2.622  -2.267  1.00  0.00     0.055 A   
ATOM     12  N5  UNL     1      -1.204   0.227  -2.525  1.00  0.00    -0.229 NA  
ATOM     13  C4  UNL     1      -2.385   2.716  -2.044  1.00  0.00     0.006 A   
ATOM     14  C5  UNL     1      -3.160   1.560  -2.072  1.00  0.00     0.024 A   
BRANCH  10  15
ATOM     15  O1  UNL     1       0.882   1.315  -2.710  1.00  0.00    -0.333 OA  
ATOM     16  C1  UNL     1       1.288   0.153  -3.425  1.00  0.00     0.205 C   
ENDBRANCH  10  15
ENDBRANCH   8   9
ENDBRANCH   7   8
ENDBRANCH   1   7
BRANCH   3  17
ATOM     17  C11 UNL     1       0.223  -2.137   2.094  1.00  0.00     0.120 C   
BRANCH  17  18
ATOM     18  N2  UNL     1      -0.246  -1.180   3.173  1.00  0.00     0.250 N   
ATOM     19  H13 UNL     1       0.368  -1.214   3.989  1.00  0.00     0.199 HD  
ATOM     20  H14 UNL     1      -1.173  -1.515   3.469  1.00  0.00     0.199 HD  
BRANCH  18  21
ATOM     21  C12 UNL     1      -0.412   0.248   2.761  1.00  0.00     0.164 C   
BRANCH  21  22
ATOM     22  C13 UNL     1       0.889   0.907   2.400  1.00  0.00    -0.002 A   
ATOM     23  C14 UNL     1       1.197   1.171   1.044  1.00  0.00     0.012 A   
ATOM     24  C18 UNL     1       1.824   1.234   3.397  1.00  0.00     0.045 A   
ATOM     25  C15 UNL     1       2.418   1.749   0.680  1.00  0.00     0.037 A   
ATOM     26  C17 UNL     1       3.019   1.801   3.004  1.00  0.00     0.109 A   
ATOM     27  C16 UNL     1       3.309   2.050   1.685  1.00  0.00     0.108 A   
ATOM     28  O2  UNL     1       4.028   2.170   3.836  1.00  0.00    -0.316 OA  
ATOM     29  O3  UNL     1       4.537   2.607   1.520  1.00  0.00    -0.316 OA  
ATOM     30  C19 UNL     1       4.982   2.705   2.890  1.00  0.00     0.337 C   
ENDBRANCH  21  22
ENDBRANCH  18  21
ENDBRANCH  17  18
BRANCH  17  31
ATOM     31  C20 UNL     1       0.661  -3.505   2.726  1.00  0.00     0.010 C   
ATOM     32  C21 UNL     1       1.865  -3.297   3.674  1.00  0.00     0.017 C   
ATOM     33  C22 UNL     1       1.126  -4.475   1.616  1.00  0.00     0.017 C   
ATOM     34  C23 UNL     1      -0.467  -4.188   3.525  1.00  0.00     0.017 C   
ENDBRANCH  17  31
ENDBRANCH   3  17
TORSDOF 9
