REMARK SMILES CC(C)[C@H]([NH2+]Cc1ccc2c(c1)OCO2)c1cn(Cc2coc(C(C)(C)C)n2)nn1
REMARK SMILES IDX 16 1 17 2 18 3 29 4 30 5 4 7 2 8 1 9 3 10 5 11 6 14 7 15
REMARK SMILES IDX 8 16 12 17 9 18 11 19 10 20 13 21 15 22 14 23 19 24 20 25
REMARK SMILES IDX 21 26 28 27 22 28 23 29 24 30 25 31 26 32 27 33
REMARK H PARENT 17 6 5 12 5 13
ROOT
ATOM     1   C13 UNL     1      -1.291   0.135  -2.620  1.00  0.00     0.127 A   
ATOM     2   C14 UNL     1      -1.635   1.224  -1.854  1.00  0.00     0.046 A   
ATOM     3   N2  UNL     1      -2.977   1.065  -1.632  1.00  0.00    -0.206 N   
ATOM     4   N4  UNL     1      -3.436  -0.038  -2.253  1.00  0.00    -0.076 NA  
ATOM     5   N5  UNL     1      -2.413  -0.618  -2.861  1.00  0.00    -0.132 NA  
ATOM     6   H18 UNL     1      -1.072   2.033  -1.407  1.00  0.00     0.083 HD  
ENDROOT
BRANCH   1   7
ATOM     7   C4  UNL     1       0.041  -0.337  -3.104  1.00  0.00     0.117 C   
BRANCH   7   8
ATOM     8   C2  UNL     1       0.430   0.291  -4.468  1.00  0.00     0.037 C   
ATOM     9   C1  UNL     1      -0.411  -0.202  -5.653  1.00  0.00     0.014 C   
ATOM     10  C3  UNL     1       1.919   0.088  -4.774  1.00  0.00     0.014 C   
ENDBRANCH   7   8
BRANCH   7  11
ATOM     11  N1  UNL     1       0.066  -1.846  -3.193  1.00  0.00     0.249 N   
ATOM     12  H9  UNL     1       0.859  -2.170  -3.752  1.00  0.00     0.199 HD  
ATOM     13  H10 UNL     1      -0.794  -2.114  -3.694  1.00  0.00     0.199 HD  
BRANCH  11  14
ATOM     14  C5  UNL     1       0.055  -2.580  -1.891  1.00  0.00     0.164 C   
BRANCH  14  15
ATOM     15  C6  UNL     1       1.323  -2.390  -1.103  1.00  0.00    -0.002 A   
ATOM     16  C7  UNL     1       2.525  -3.019  -1.510  1.00  0.00     0.012 A   
ATOM     17  C11 UNL     1       1.327  -1.555   0.030  1.00  0.00     0.045 A   
ATOM     18  C8  UNL     1       3.716  -2.814  -0.805  1.00  0.00     0.037 A   
ATOM     19  C10 UNL     1       2.519  -1.374   0.700  1.00  0.00     0.109 A   
ATOM     20  C9  UNL     1       3.680  -1.984   0.294  1.00  0.00     0.108 A   
ATOM     21  O1  UNL     1       2.696  -0.597   1.801  1.00  0.00    -0.316 OA  
ATOM     22  O2  UNL     1       4.735  -1.669   1.088  1.00  0.00    -0.316 OA  
ATOM     23  C12 UNL     1       4.105  -0.802   2.055  1.00  0.00     0.337 C   
ENDBRANCH  14  15
ENDBRANCH  11  14
ENDBRANCH   7  11
ENDBRANCH   1   7
BRANCH   3  24
ATOM     24  C15 UNL     1      -3.850   1.874  -0.797  1.00  0.00     0.192 C   
BRANCH  24  25
ATOM     25  C16 UNL     1      -3.540   1.621   0.630  1.00  0.00     0.086 A   
ATOM     26  C17 UNL     1      -4.259   0.917   1.567  1.00  0.00     0.163 A   
ATOM     27  N3  UNL     1      -2.381   2.097   1.211  1.00  0.00    -0.229 NA  
ATOM     28  O3  UNL     1      -3.568   0.941   2.739  1.00  0.00    -0.301 OA  
ATOM     29  C18 UNL     1      -2.446   1.675   2.461  1.00  0.00     0.153 A   
BRANCH  29  30
ATOM     30  C19 UNL     1      -1.470   1.891   3.587  1.00  0.00     0.027 C   
ATOM     31  C20 UNL     1      -2.131   2.729   4.694  1.00  0.00     0.020 C   
ATOM     32  C21 UNL     1      -0.230   2.643   3.068  1.00  0.00     0.020 C   
ATOM     33  C22 UNL     1      -1.019   0.534   4.156  1.00  0.00     0.020 C   
ENDBRANCH  29  30
ENDBRANCH  24  25
ENDBRANCH   3  24
TORSDOF 8
