REMARK SMILES CC(C)[C@H]([NH2+]Cc1ccc2c(c1)OCO2)c1cn(CCc2cccnc2Cl)nn1
REMARK SMILES IDX 16 1 17 2 18 3 28 4 29 5 4 7 2 8 1 9 3 10 5 11 6 14 7 15
REMARK SMILES IDX 8 16 12 17 9 18 11 19 10 20 13 21 15 22 14 23 19 24 20 25
REMARK SMILES IDX 21 26 22 27 26 28 23 29 25 30 24 31 27 32
REMARK H PARENT 17 6 5 12 5 13
ROOT
ATOM     1   C13 UNL     1      -0.775   0.451   1.425  1.00  0.00     0.127 A   
ATOM     2   C14 UNL     1      -0.263  -0.812   1.631  1.00  0.00     0.045 A   
ATOM     3   N2  UNL     1      -1.335  -1.521   2.104  1.00  0.00    -0.212 N   
ATOM     4   N4  UNL     1      -2.386  -0.715   2.323  1.00  0.00    -0.076 NA  
ATOM     5   N5  UNL     1      -2.065   0.491   1.883  1.00  0.00    -0.132 NA  
ATOM     6   H18 UNL     1       0.674  -1.283   1.368  1.00  0.00     0.083 HD  
ENDROOT
BRANCH   1   7
ATOM     7   C4  UNL     1      -0.222   1.607   0.649  1.00  0.00     0.117 C   
BRANCH   7   8
ATOM     8   C2  UNL     1      -0.025   2.899   1.481  1.00  0.00     0.037 C   
ATOM     9   C1  UNL     1      -1.310   3.521   2.038  1.00  0.00     0.014 C   
ATOM     10  C3  UNL     1       0.975   2.674   2.623  1.00  0.00     0.014 C   
ENDBRANCH   7   8
BRANCH   7  11
ATOM     11  N1  UNL     1      -1.141   1.823  -0.530  1.00  0.00     0.249 N   
ATOM     12  H9  UNL     1      -1.216   0.918  -1.024  1.00  0.00     0.199 HD  
ATOM     13  H10 UNL     1      -2.091   1.971  -0.161  1.00  0.00     0.199 HD  
BRANCH  11  14
ATOM     14  C5  UNL     1      -0.808   2.856  -1.542  1.00  0.00     0.164 C   
BRANCH  14  15
ATOM     15  C6  UNL     1       0.500   2.608  -2.241  1.00  0.00    -0.002 A   
ATOM     16  C7  UNL     1       1.628   3.418  -1.968  1.00  0.00     0.012 A   
ATOM     17  C11 UNL     1       0.618   1.552  -3.161  1.00  0.00     0.045 A   
ATOM     18  C8  UNL     1       2.858   3.174  -2.589  1.00  0.00     0.037 A   
ATOM     19  C10 UNL     1       1.844   1.337  -3.755  1.00  0.00     0.109 A   
ATOM     20  C9  UNL     1       2.933   2.125  -3.477  1.00  0.00     0.108 A   
ATOM     21  O1  UNL     1       2.128   0.355  -4.651  1.00  0.00    -0.316 OA  
ATOM     22  O2  UNL     1       4.038   1.743  -4.167  1.00  0.00    -0.316 OA  
ATOM     23  C12 UNL     1       3.512   0.652  -4.951  1.00  0.00     0.337 C   
ENDBRANCH  14  15
ENDBRANCH  11  14
ENDBRANCH   7  11
ENDBRANCH   1   7
BRANCH   3  24
ATOM     24  C15 UNL     1      -1.512  -2.960   2.084  1.00  0.00     0.139 C   
BRANCH  24  25
ATOM     25  C16 UNL     1      -2.206  -3.451   0.798  1.00  0.00     0.060 C   
BRANCH  25  26
ATOM     26  C17 UNL     1      -1.461  -3.051  -0.457  1.00  0.00    -0.009 A   
ATOM     27  C18 UNL     1      -0.298  -3.743  -0.819  1.00  0.00     0.008 A   
ATOM     28  C21 UNL     1      -1.795  -1.943  -1.237  1.00  0.00     0.132 A   
ATOM     29  C19 UNL     1       0.472  -3.299  -1.891  1.00  0.00     0.020 A   
ATOM     30  N3  UNL     1      -1.025  -1.438  -2.228  1.00  0.00    -0.244 NA  
ATOM     31  C20 UNL     1       0.076  -2.151  -2.555  1.00  0.00     0.113 A   
ATOM     32  CL1 UNL     1      -3.205  -0.988  -0.998  1.00  0.00    -0.062 Cl  
ENDBRANCH  25  26
ENDBRANCH  24  25
ENDBRANCH   3  24
TORSDOF 8
