REMARK SMILES CC(C)C[C@H]([NH2+]Cc1ccc2c(c1)OCO2)c1cn(-c2cccc(CCN)c2)nn1
REMARK SMILES IDX 20 1 21 2 22 3 23 4 24 5 28 6 19 7 17 8 18 9 30 10 29 11
REMARK SMILES IDX 5 12 4 13 2 14 1 15 3 16 6 17 7 20 8 21 9 22 13 23 10 24
REMARK SMILES IDX 12 25 11 26 14 27 16 28 15 29 25 30 26 31 27 32
REMARK H PARENT 6 18 6 19 27 33 27 34
ROOT
ATOM     1   C16 UNL     1      -2.754   1.623  -2.848  1.00  0.00     0.058 A   
ATOM     2   C17 UNL     1      -2.566   1.788  -4.227  1.00  0.00     0.026 A   
ATOM     3   C18 UNL     1      -3.648   2.107  -5.048  1.00  0.00     0.002 A   
ATOM     4   C19 UNL     1      -4.920   2.268  -4.502  1.00  0.00     0.004 A   
ATOM     5   C20 UNL     1      -5.123   2.116  -3.126  1.00  0.00    -0.045 A   
ATOM     6   C23 UNL     1      -4.034   1.788  -2.301  1.00  0.00     0.029 A   
ENDROOT
BRANCH   1   7
ATOM     7   N2  UNL     1      -1.649   1.296  -2.025  1.00  0.00    -0.181 N   
ATOM     8   C14 UNL     1      -0.287   0.817  -0.376  1.00  0.00     0.127 A   
ATOM     9   C15 UNL     1      -1.611   1.064  -0.662  1.00  0.00     0.135 A   
ATOM     10  N5  UNL     1       0.437   0.873  -1.533  1.00  0.00    -0.131 NA  
ATOM     11  N4  UNL     1      -0.395   1.141  -2.525  1.00  0.00    -0.071 NA  
BRANCH   8  12
ATOM     12  C5  UNL     1       0.404   0.476   0.905  1.00  0.00     0.114 C   
BRANCH  12  13
ATOM     13  C4  UNL     1       0.924   1.722   1.647  1.00  0.00     0.064 C   
BRANCH  13  14
ATOM     14  C2  UNL     1      -0.164   2.689   2.163  1.00  0.00    -0.012 C   
ATOM     15  C1  UNL     1      -1.116   2.020   3.156  1.00  0.00     0.007 C   
ATOM     16  C3  UNL     1       0.497   3.903   2.823  1.00  0.00     0.007 C   
ENDBRANCH  13  14
ENDBRANCH  12  13
BRANCH  12  17
ATOM     17  N1  UNL     1       1.605  -0.395   0.619  1.00  0.00     0.249 N   
ATOM     18  H11 UNL     1       2.261  -0.405   1.406  1.00  0.00     0.199 HD  
ATOM     19  H12 UNL     1       2.107   0.042  -0.169  1.00  0.00     0.199 HD  
BRANCH  17  20
ATOM     20  C6  UNL     1       1.298  -1.799   0.227  1.00  0.00     0.164 C   
BRANCH  20  21
ATOM     21  C7  UNL     1       2.554  -2.514  -0.183  1.00  0.00    -0.002 A   
ATOM     22  C8  UNL     1       3.038  -2.389  -1.508  1.00  0.00     0.012 A   
ATOM     23  C12 UNL     1       3.282  -3.268   0.753  1.00  0.00     0.045 A   
ATOM     24  C9  UNL     1       4.225  -3.016  -1.902  1.00  0.00     0.037 A   
ATOM     25  C11 UNL     1       4.448  -3.875   0.330  1.00  0.00     0.109 A   
ATOM     26  C10 UNL     1       4.906  -3.754  -0.959  1.00  0.00     0.108 A   
ATOM     27  O1  UNL     1       5.264  -4.641   1.101  1.00  0.00    -0.316 OA  
ATOM     28  O2  UNL     1       6.066  -4.430  -1.163  1.00  0.00    -0.316 OA  
ATOM     29  C13 UNL     1       6.275  -5.020   0.138  1.00  0.00     0.337 C   
ENDBRANCH  20  21
ENDBRANCH  17  20
ENDBRANCH  12  17
ENDBRANCH   8  12
ENDBRANCH   1   7
BRANCH   5  30
ATOM     30  C21 UNL     1      -6.502   2.287  -2.530  1.00  0.00     0.050 C   
BRANCH  30  31
ATOM     31  C22 UNL     1      -7.394   1.046  -2.667  1.00  0.00     0.082 C   
BRANCH  31  32
ATOM     32  N3  UNL     1      -6.864  -0.114  -1.944  1.00  0.00    -0.330 NA  
ATOM     33  H28 UNL     1      -6.035  -0.448  -2.440  1.00  0.00     0.118 HD  
ATOM     34  H29 UNL     1      -7.543  -0.873  -2.012  1.00  0.00     0.118 HD  
ENDBRANCH  31  32
ENDBRANCH  30  31
ENDBRANCH   5  30
TORSDOF 10
