REMARK SMILES COCc1ccc(Cn2cc([C@@H]([NH2+]Cc3ccc4c(c3)OCO4)C(C)(C)C)nn2)o1
REMARK SMILES IDX 9 1 10 2 11 3 28 4 29 5 8 7 7 8 4 9 5 10 30 11 6 12 3 13
REMARK SMILES IDX 2 14 1 15 12 16 13 17 14 20 15 21 16 22 20 23 17 24 19 25
REMARK SMILES IDX 18 26 21 27 23 28 22 29 24 30 25 31 26 32 27 33
REMARK H PARENT 10 6 13 18 13 19
ROOT
ATOM     1   N1  UNL     1      -1.880  -1.113   3.236  1.00  0.00    -0.206 N   
ATOM     2   C8  UNL     1      -2.196  -1.637   2.009  1.00  0.00     0.046 A   
ATOM     3   C9  UNL     1      -1.025  -2.237   1.602  1.00  0.00     0.127 A   
ATOM     4   N3  UNL     1      -0.109  -2.180   2.623  1.00  0.00    -0.132 NA  
ATOM     5   N4  UNL     1      -0.651  -1.510   3.626  1.00  0.00    -0.076 NA  
ATOM     6   H10 UNL     1      -3.122  -1.396   1.504  1.00  0.00     0.083 HD  
ENDROOT
BRANCH   1   7
ATOM     7   C7  UNL     1      -2.563  -0.031   3.927  1.00  0.00     0.195 C   
BRANCH   7   8
ATOM     8   C6  UNL     1      -2.106   1.262   3.345  1.00  0.00     0.078 A   
ATOM     9   C3  UNL     1      -1.836   2.665   1.669  1.00  0.00     0.085 A   
ATOM     10  C4  UNL     1      -1.196   3.224   2.757  1.00  0.00     0.034 A   
ATOM     11  O4  UNL     1      -2.412   1.480   2.030  1.00  0.00    -0.315 OA  
ATOM     12  C5  UNL     1      -1.369   2.321   3.837  1.00  0.00     0.033 A   
BRANCH   9  13
ATOM     13  C2  UNL     1      -2.022   3.099   0.260  1.00  0.00     0.221 C   
BRANCH  13  14
ATOM     14  O1  UNL     1      -1.247   2.214  -0.562  1.00  0.00    -0.378 OA  
ATOM     15  C1  UNL     1      -1.318   2.619  -1.926  1.00  0.00     0.195 C   
ENDBRANCH  13  14
ENDBRANCH   9  13
ENDBRANCH   7   8
ENDBRANCH   1   7
BRANCH   3  16
ATOM     16  C10 UNL     1      -0.584  -2.661   0.235  1.00  0.00     0.120 C   
BRANCH  16  17
ATOM     17  N2  UNL     1       0.679  -1.896  -0.090  1.00  0.00     0.250 N   
ATOM     18  H12 UNL     1       1.297  -1.987   0.730  1.00  0.00     0.199 HD  
ATOM     19  H13 UNL     1       1.188  -2.290  -0.884  1.00  0.00     0.199 HD  
BRANCH  17  20
ATOM     20  C11 UNL     1       0.486  -0.430  -0.319  1.00  0.00     0.164 C   
BRANCH  20  21
ATOM     21  C12 UNL     1       1.817   0.256  -0.452  1.00  0.00    -0.002 A   
ATOM     22  C13 UNL     1       2.438   0.809   0.692  1.00  0.00     0.012 A   
ATOM     23  C17 UNL     1       2.475   0.306  -1.692  1.00  0.00     0.045 A   
ATOM     24  C14 UNL     1       3.694   1.417   0.604  1.00  0.00     0.037 A   
ATOM     25  C16 UNL     1       3.715   0.907  -1.742  1.00  0.00     0.109 A   
ATOM     26  C15 UNL     1       4.307   1.448  -0.626  1.00  0.00     0.108 A   
ATOM     27  O2  UNL     1       4.487   1.038  -2.854  1.00  0.00    -0.316 OA  
ATOM     28  O3  UNL     1       5.522   1.993  -0.897  1.00  0.00    -0.316 OA  
ATOM     29  C18 UNL     1       5.640   1.720  -2.309  1.00  0.00     0.337 C   
ENDBRANCH  20  21
ENDBRANCH  17  20
ENDBRANCH  16  17
BRANCH  16  30
ATOM     30  C19 UNL     1      -0.370  -4.201   0.058  1.00  0.00     0.010 C   
ATOM     31  C20 UNL     1      -0.083  -4.528  -1.426  1.00  0.00     0.017 C   
ATOM     32  C21 UNL     1       0.792  -4.755   0.904  1.00  0.00     0.017 C   
ATOM     33  C22 UNL     1      -1.661  -4.957   0.447  1.00  0.00     0.017 C   
ENDBRANCH  16  30
ENDBRANCH   3  16
TORSDOF 9
