REMARK SMILES CC(C)(C)[C@H]([NH2+]Cc1ccc2c(c1)OCO2)c1cn([C@H](CO)c2ccoc2)nn1
REMARK SMILES IDX 17 1 18 2 19 3 28 4 29 5 5 7 2 8 1 9 3 10 4 11 6 12 7 15
REMARK SMILES IDX 8 16 9 17 13 18 10 19 12 20 11 21 14 22 16 23 15 24 20 25
REMARK SMILES IDX 21 26 22 27 23 29 24 30 27 31 25 32 26 33
REMARK H PARENT 18 6 6 13 6 14 22 28
ROOT
ATOM     1   C14 UNL     1       1.274   0.749   0.310  1.00  0.00     0.127 A   
ATOM     2   C15 UNL     1       0.758   0.885  -0.958  1.00  0.00     0.046 A   
ATOM     3   N2  UNL     1       1.493   0.013  -1.716  1.00  0.00    -0.202 N   
ATOM     4   N3  UNL     1       2.383  -0.650  -0.944  1.00  0.00    -0.075 NA  
ATOM     5   N4  UNL     1       2.252  -0.212   0.297  1.00  0.00    -0.132 NA  
ATOM     6   H20 UNL     1      -0.027   1.496  -1.381  1.00  0.00     0.083 HD  
ENDROOT
BRANCH   1   7
ATOM     7   C5  UNL     1       0.888   1.385   1.610  1.00  0.00     0.120 C   
BRANCH   7   8
ATOM     8   C2  UNL     1       1.759   2.629   2.000  1.00  0.00     0.010 C   
ATOM     9   C1  UNL     1       3.248   2.282   2.206  1.00  0.00     0.017 C   
ATOM     10  C3  UNL     1       1.220   3.268   3.301  1.00  0.00     0.017 C   
ATOM     11  C4  UNL     1       1.663   3.707   0.896  1.00  0.00     0.017 C   
ENDBRANCH   7   8
BRANCH   7  12
ATOM     12  N1  UNL     1       0.959   0.320   2.691  1.00  0.00     0.250 N   
ATOM     13  H11 UNL     1       1.459   0.656   3.517  1.00  0.00     0.199 HD  
ATOM     14  H12 UNL     1       1.554  -0.431   2.305  1.00  0.00     0.199 HD  
BRANCH  12  15
ATOM     15  C6  UNL     1      -0.337  -0.280   3.112  1.00  0.00     0.164 C   
BRANCH  15  16
ATOM     16  C7  UNL     1      -1.048  -1.028   2.020  1.00  0.00    -0.002 A   
ATOM     17  C8  UNL     1      -0.548  -2.268   1.557  1.00  0.00     0.012 A   
ATOM     18  C12 UNL     1      -2.210  -0.492   1.438  1.00  0.00     0.045 A   
ATOM     19  C9  UNL     1      -1.196  -2.969   0.534  1.00  0.00     0.037 A   
ATOM     20  C11 UNL     1      -2.823  -1.208   0.431  1.00  0.00     0.109 A   
ATOM     21  C10 UNL     1      -2.333  -2.413  -0.006  1.00  0.00     0.108 A   
ATOM     22  O1  UNL     1      -3.949  -0.833  -0.229  1.00  0.00    -0.316 OA  
ATOM     23  O2  UNL     1      -3.096  -2.958  -0.988  1.00  0.00    -0.316 OA  
ATOM     24  C13 UNL     1      -4.121  -1.950  -1.131  1.00  0.00     0.337 C   
ENDBRANCH  15  16
ENDBRANCH  12  15
ENDBRANCH   7  12
ENDBRANCH   1   7
BRANCH   3  25
ATOM     25  C16 UNL     1       1.409  -0.271  -3.147  1.00  0.00     0.157 C   
BRANCH  25  26
ATOM     26  C17 UNL     1       1.772   0.949  -4.014  1.00  0.00     0.186 C   
BRANCH  26  27
ATOM     27  O3  UNL     1       0.892   2.059  -3.823  1.00  0.00    -0.394 OA  
ATOM     28  H24 UNL     1       1.108   2.714  -4.515  1.00  0.00     0.210 HD  
ENDBRANCH  26  27
ENDBRANCH  25  26
BRANCH  25  29
ATOM     29  C18 UNL     1       0.093  -0.918  -3.479  1.00  0.00     0.002 A   
ATOM     30  C19 UNL     1      -0.160  -2.320  -3.574  1.00  0.00     0.033 A   
ATOM     31  C21 UNL     1      -1.120  -0.317  -3.759  1.00  0.00     0.141 A   
ATOM     32  C20 UNL     1      -1.488  -2.461  -3.899  1.00  0.00     0.136 A   
ATOM     33  O4  UNL     1      -2.076  -1.245  -4.010  1.00  0.00    -0.326 OA  
ENDBRANCH  25  29
ENDBRANCH   3  25
TORSDOF 9
