REMARK SMILES CC(C)(C)[C@H]([NH2+]Cc1ccc2c(c1)OCO2)c1cn([C@@H](CO)c2ccoc2)nn1
REMARK SMILES IDX 17 1 18 2 19 3 28 4 29 5 5 7 2 8 1 9 3 10 4 11 6 12 7 15
REMARK SMILES IDX 8 16 9 17 13 18 10 19 12 20 11 21 14 22 16 23 15 24 20 25
REMARK SMILES IDX 21 26 22 27 23 29 24 30 27 31 25 32 26 33
REMARK H PARENT 18 6 6 13 6 14 22 28
ROOT
ATOM     1   C14 UNL     1       0.812  -0.400  -0.738  1.00  0.00     0.127 A   
ATOM     2   C15 UNL     1       1.771  -1.352  -1.001  1.00  0.00     0.046 A   
ATOM     3   N2  UNL     1       2.876  -0.627  -1.363  1.00  0.00    -0.202 N   
ATOM     4   N3  UNL     1       2.627   0.696  -1.254  1.00  0.00    -0.075 NA  
ATOM     5   N4  UNL     1       1.366   0.846  -0.883  1.00  0.00    -0.132 NA  
ATOM     6   H20 UNL     1       1.772  -2.433  -0.978  1.00  0.00     0.083 HD  
ENDROOT
BRANCH   1   7
ATOM     7   C5  UNL     1      -0.607  -0.533  -0.276  1.00  0.00     0.120 C   
BRANCH   7   8
ATOM     8   C2  UNL     1      -1.662  -0.539  -1.438  1.00  0.00     0.010 C   
ATOM     9   C1  UNL     1      -1.340  -1.667  -2.446  1.00  0.00     0.017 C   
ATOM     10  C3  UNL     1      -3.075  -0.829  -0.880  1.00  0.00     0.017 C   
ATOM     11  C4  UNL     1      -1.710   0.797  -2.206  1.00  0.00     0.017 C   
ENDBRANCH   7   8
BRANCH   7  12
ATOM     12  N1  UNL     1      -0.904   0.581   0.701  1.00  0.00     0.250 N   
ATOM     13  H11 UNL     1      -0.531   1.446   0.282  1.00  0.00     0.199 HD  
ATOM     14  H12 UNL     1      -1.907   0.734   0.827  1.00  0.00     0.199 HD  
BRANCH  12  15
ATOM     15  C6  UNL     1      -0.271   0.433   2.041  1.00  0.00     0.164 C   
BRANCH  15  16
ATOM     16  C7  UNL     1      -0.634   1.596   2.922  1.00  0.00    -0.002 A   
ATOM     17  C8  UNL     1      -1.749   1.516   3.791  1.00  0.00     0.012 A   
ATOM     18  C12 UNL     1       0.098   2.793   2.842  1.00  0.00     0.045 A   
ATOM     19  C9  UNL     1      -2.124   2.608   4.580  1.00  0.00     0.037 A   
ATOM     20  C11 UNL     1      -0.299   3.851   3.633  1.00  0.00     0.109 A   
ATOM     21  C10 UNL     1      -1.379   3.762   4.477  1.00  0.00     0.108 A   
ATOM     22  O1  UNL     1       0.291   5.074   3.672  1.00  0.00    -0.316 OA  
ATOM     23  O2  UNL     1      -1.602   4.916   5.157  1.00  0.00    -0.316 OA  
ATOM     24  C13 UNL     1      -0.530   5.744   4.656  1.00  0.00     0.337 C   
ENDBRANCH  15  16
ENDBRANCH  12  15
ENDBRANCH   7  12
ENDBRANCH   1   7
BRANCH   3  25
ATOM     25  C16 UNL     1       4.193  -1.095  -1.798  1.00  0.00     0.157 C   
BRANCH  25  26
ATOM     26  C17 UNL     1       5.090  -1.444  -0.598  1.00  0.00     0.186 C   
BRANCH  26  27
ATOM     27  O3  UNL     1       4.530  -2.464   0.234  1.00  0.00    -0.394 OA  
ATOM     28  H24 UNL     1       5.220  -2.712   0.879  1.00  0.00     0.210 HD  
ENDBRANCH  26  27
ENDBRANCH  25  26
BRANCH  25  29
ATOM     29  C18 UNL     1       4.058  -2.179  -2.835  1.00  0.00     0.002 A   
ATOM     30  C19 UNL     1       3.901  -1.994  -4.244  1.00  0.00     0.033 A   
ATOM     31  C21 UNL     1       4.053  -3.550  -2.654  1.00  0.00     0.141 A   
ATOM     32  C20 UNL     1       3.806  -3.248  -4.799  1.00  0.00     0.136 A   
ATOM     33  O4  UNL     1       3.892  -4.196  -3.834  1.00  0.00    -0.326 OA  
ENDBRANCH  25  29
ENDBRANCH   3  25
TORSDOF 9
