REMARK SMILES CC(C)(C)[C@H]([NH2+]Cc1ccc2c(c1)OCO2)c1cn(Cc2ccc(O)c(F)c2)nn1
REMARK SMILES IDX 17 1 18 2 19 3 29 4 30 5 5 7 2 8 1 9 3 10 4 11 6 12 7 15
REMARK SMILES IDX 8 16 9 17 13 18 10 19 12 20 11 21 14 22 16 23 15 24 20 25
REMARK SMILES IDX 21 26 22 27 28 28 23 29 26 30 24 31 27 32 25 33
REMARK H PARENT 18 6 6 13 6 14 25 34
ROOT
ATOM     1   C14 UNL     1       1.078  -0.430   2.000  1.00  0.00     0.127 A   
ATOM     2   C15 UNL     1      -0.233  -0.037   2.151  1.00  0.00     0.046 A   
ATOM     3   N2  UNL     1      -0.143   1.269   2.550  1.00  0.00    -0.208 N   
ATOM     4   N3  UNL     1       1.144   1.659   2.631  1.00  0.00    -0.076 NA  
ATOM     5   N4  UNL     1       1.901   0.629   2.293  1.00  0.00    -0.132 NA  
ATOM     6   H20 UNL     1      -1.181  -0.537   2.011  1.00  0.00     0.083 HD  
ENDROOT
BRANCH   1   7
ATOM     7   C5  UNL     1       1.690  -1.716   1.530  1.00  0.00     0.120 C   
BRANCH   7   8
ATOM     8   C2  UNL     1       1.964  -2.757   2.671  1.00  0.00     0.010 C   
ATOM     9   C1  UNL     1       2.959  -2.238   3.728  1.00  0.00     0.017 C   
ATOM     10  C3  UNL     1       0.642  -3.116   3.390  1.00  0.00     0.017 C   
ATOM     11  C4  UNL     1       2.520  -4.069   2.072  1.00  0.00     0.017 C   
ENDBRANCH   7   8
BRANCH   7  12
ATOM     12  N1  UNL     1       2.977  -1.383   0.794  1.00  0.00     0.250 N   
ATOM     13  H11 UNL     1       3.221  -0.420   1.081  1.00  0.00     0.199 HD  
ATOM     14  H12 UNL     1       3.758  -1.958   1.118  1.00  0.00     0.199 HD  
BRANCH  12  15
ATOM     15  C6  UNL     1       2.921  -1.425  -0.692  1.00  0.00     0.164 C   
BRANCH  15  16
ATOM     16  C7  UNL     1       1.988  -0.415  -1.298  1.00  0.00    -0.002 A   
ATOM     17  C8  UNL     1       2.312   0.963  -1.279  1.00  0.00     0.012 A   
ATOM     18  C12 UNL     1       0.776  -0.829  -1.877  1.00  0.00     0.045 A   
ATOM     19  C9  UNL     1       1.448   1.914  -1.833  1.00  0.00     0.037 A   
ATOM     20  C11 UNL     1      -0.053   0.134  -2.414  1.00  0.00     0.109 A   
ATOM     21  C10 UNL     1       0.275   1.467  -2.396  1.00  0.00     0.108 A   
ATOM     22  O1  UNL     1      -1.250  -0.099  -3.012  1.00  0.00    -0.316 OA  
ATOM     23  O2  UNL     1      -0.670   2.241  -2.988  1.00  0.00    -0.316 OA  
ATOM     24  C13 UNL     1      -1.627   1.242  -3.403  1.00  0.00     0.337 C   
ENDBRANCH  15  16
ENDBRANCH  12  15
ENDBRANCH   7  12
ENDBRANCH   1   7
BRANCH   3  25
ATOM     25  C16 UNL     1      -1.218   2.180   2.910  1.00  0.00     0.169 C   
BRANCH  25  26
ATOM     26  C17 UNL     1      -2.112   2.478   1.733  1.00  0.00    -0.025 A   
ATOM     27  C18 UNL     1      -1.645   3.262   0.662  1.00  0.00     0.008 A   
ATOM     28  C22 UNL     1      -3.422   1.977   1.687  1.00  0.00     0.047 A   
ATOM     29  C19 UNL     1      -2.466   3.532  -0.436  1.00  0.00     0.036 A   
ATOM     30  C21 UNL     1      -4.229   2.252   0.587  1.00  0.00     0.153 A   
ATOM     31  C20 UNL     1      -3.754   3.019  -0.470  1.00  0.00     0.107 A   
ATOM     32  F1  UNL     1      -5.476   1.760   0.540  1.00  0.00    -0.204 F   
BRANCH  31  33
ATOM     33  O3  UNL     1      -4.532   3.276  -1.561  1.00  0.00    -0.358 OA  
ATOM     34  H25 UNL     1      -5.419   2.913  -1.376  1.00  0.00     0.218 HD  
ENDBRANCH  31  33
ENDBRANCH  25  26
ENDBRANCH   3  25
TORSDOF 8
