REMARK SMILES COc1ccccc1Cn1cc([C@@H]([NH2+]Cc2ccc3c(c2)OCO3)C(C)(C)C)nn1
REMARK SMILES IDX 10 1 11 2 12 3 29 4 30 5 9 7 8 8 3 9 4 10 5 11 7 12 6 13
REMARK SMILES IDX 2 14 1 15 13 16 14 17 15 20 16 21 17 22 21 23 18 24 20 25
REMARK SMILES IDX 19 26 22 27 24 28 23 29 25 30 26 31 27 32 28 33
REMARK H PARENT 11 6 14 18 14 19
ROOT
ATOM     1   N1  UNL     1       0.875   2.334   0.254  1.00  0.00    -0.208 N   
ATOM     2   C9  UNL     1      -0.003   1.633  -0.526  1.00  0.00     0.046 A   
ATOM     3   C10 UNL     1      -1.080   1.412   0.302  1.00  0.00     0.127 A   
ATOM     4   N3  UNL     1      -0.846   2.004   1.516  1.00  0.00    -0.132 NA  
ATOM     5   N4  UNL     1       0.347   2.574   1.472  1.00  0.00    -0.076 NA  
ATOM     6   H10 UNL     1       0.240   1.324  -1.533  1.00  0.00     0.083 HD  
ENDROOT
BRANCH   1   7
ATOM     7   C8  UNL     1       2.224   2.760  -0.073  1.00  0.00     0.172 C   
BRANCH   7   8
ATOM     8   C7  UNL     1       3.237   1.743   0.396  1.00  0.00     0.002 A   
ATOM     9   C2  UNL     1       3.540   0.600  -0.369  1.00  0.00     0.079 A   
ATOM     10  C3  UNL     1       4.472  -0.325   0.112  1.00  0.00     0.034 A   
ATOM     11  C4  UNL     1       5.102  -0.121   1.342  1.00  0.00     0.003 A   
ATOM     12  C6  UNL     1       3.873   1.929   1.636  1.00  0.00     0.008 A   
ATOM     13  C5  UNL     1       4.803   1.004   2.103  1.00  0.00     0.001 A   
BRANCH   9  14
ATOM     14  O1  UNL     1       2.858   0.471  -1.552  1.00  0.00    -0.349 OA  
ATOM     15  C1  UNL     1       3.328  -0.521  -2.460  1.00  0.00     0.203 C   
ENDBRANCH   9  14
ENDBRANCH   7   8
ENDBRANCH   1   7
BRANCH   3  16
ATOM     16  C11 UNL     1      -2.299   0.567   0.111  1.00  0.00     0.120 C   
BRANCH  16  17
ATOM     17  N2  UNL     1      -2.517  -0.270   1.359  1.00  0.00     0.250 N   
ATOM     18  H12 UNL     1      -2.558   0.392   2.146  1.00  0.00     0.199 HD  
ATOM     19  H13 UNL     1      -3.412  -0.759   1.319  1.00  0.00     0.199 HD  
BRANCH  17  20
ATOM     20  C12 UNL     1      -1.444  -1.260   1.692  1.00  0.00     0.164 C   
BRANCH  20  21
ATOM     21  C13 UNL     1      -1.262  -2.316   0.637  1.00  0.00    -0.002 A   
ATOM     22  C14 UNL     1      -2.238  -3.325   0.456  1.00  0.00     0.012 A   
ATOM     23  C18 UNL     1      -0.132  -2.286  -0.201  1.00  0.00     0.045 A   
ATOM     24  C15 UNL     1      -2.096  -4.287  -0.549  1.00  0.00     0.037 A   
ATOM     25  C17 UNL     1      -0.025  -3.248  -1.184  1.00  0.00     0.109 A   
ATOM     26  C16 UNL     1      -0.980  -4.220  -1.353  1.00  0.00     0.108 A   
ATOM     27  O2  UNL     1       0.990  -3.356  -2.080  1.00  0.00    -0.316 OA  
ATOM     28  O3  UNL     1      -0.685  -5.064  -2.375  1.00  0.00    -0.316 OA  
ATOM     29  C19 UNL     1       0.583  -4.534  -2.815  1.00  0.00     0.337 C   
ENDBRANCH  20  21
ENDBRANCH  17  20
ENDBRANCH  16  17
BRANCH  16  30
ATOM     30  C20 UNL     1      -3.596   1.374  -0.244  1.00  0.00     0.010 C   
ATOM     31  C21 UNL     1      -4.760   0.406  -0.562  1.00  0.00     0.017 C   
ATOM     32  C22 UNL     1      -4.053   2.316   0.887  1.00  0.00     0.017 C   
ATOM     33  C23 UNL     1      -3.356   2.223  -1.514  1.00  0.00     0.017 C   
ENDBRANCH  16  30
ENDBRANCH   3  16
TORSDOF 8
