REMARK SMILES Cc1cscc1[C@H](CO)n1cc([C@@H]([NH2+]Cc2ccc3c(c2)OCO3)C(C)(C)C)nn1
REMARK SMILES IDX 10 1 11 2 12 3 29 4 30 5 7 7 6 8 2 9 3 10 4 11 5 12 1 13
REMARK SMILES IDX 8 14 9 15 13 17 14 18 15 21 16 22 17 23 21 24 18 25 20 26
REMARK SMILES IDX 19 27 22 28 24 29 23 30 25 31 26 32 27 33 28 34
REMARK H PARENT 11 6 9 16 14 19 14 20
ROOT
ATOM     1   N1  UNL     1       1.350  -0.891   2.285  1.00  0.00    -0.202 N   
ATOM     2   C8  UNL     1       0.541  -1.337   1.273  1.00  0.00     0.046 A   
ATOM     3   C9  UNL     1       1.004  -0.676   0.156  1.00  0.00     0.127 A   
ATOM     4   N3  UNL     1       2.034   0.153   0.517  1.00  0.00    -0.132 NA  
ATOM     5   N4  UNL     1       2.233   0.020   1.817  1.00  0.00    -0.075 NA  
ATOM     6   H10 UNL     1      -0.252  -2.053   1.441  1.00  0.00     0.083 HD  
ENDROOT
BRANCH   1   7
ATOM     7   C6  UNL     1       1.287  -1.246   3.706  1.00  0.00     0.156 C   
BRANCH   7   8
ATOM     8   C5  UNL     1       0.638  -0.114   4.485  1.00  0.00    -0.013 A   
ATOM     9   C2  UNL     1      -0.695  -0.155   5.056  1.00  0.00    -0.039 A   
ATOM     10  C3  UNL     1      -1.005   1.031   5.695  1.00  0.00     0.049 A   
ATOM     11  S1  UNL     1       0.258   2.173   5.630  1.00  0.00    -0.105 S   
ATOM     12  C4  UNL     1       1.245   1.105   4.745  1.00  0.00     0.051 A   
ATOM     13  C1  UNL     1      -1.632  -1.320   4.989  1.00  0.00     0.045 C   
ENDBRANCH   7   8
BRANCH   7  14
ATOM     14  C7  UNL     1       2.658  -1.670   4.256  1.00  0.00     0.185 C   
BRANCH  14  15
ATOM     15  O1  UNL     1       3.013  -2.957   3.744  1.00  0.00    -0.394 OA  
ATOM     16  H9  UNL     1       3.921  -3.143   4.047  1.00  0.00     0.210 HD  
ENDBRANCH  14  15
ENDBRANCH   7  14
ENDBRANCH   1   7
BRANCH   3  17
ATOM     17  C10 UNL     1       0.518  -0.674  -1.260  1.00  0.00     0.120 C   
BRANCH  17  18
ATOM     18  N2  UNL     1       0.600   0.739  -1.806  1.00  0.00     0.250 N   
ATOM     19  H12 UNL     1       1.557   1.064  -1.611  1.00  0.00     0.199 HD  
ATOM     20  H13 UNL     1       0.473   0.751  -2.819  1.00  0.00     0.199 HD  
BRANCH  18  21
ATOM     21  C11 UNL     1      -0.325   1.743  -1.198  1.00  0.00     0.164 C   
BRANCH  21  22
ATOM     22  C12 UNL     1      -1.771   1.456  -1.484  1.00  0.00    -0.002 A   
ATOM     23  C13 UNL     1      -2.301   1.663  -2.781  1.00  0.00     0.012 A   
ATOM     24  C17 UNL     1      -2.603   0.952  -0.469  1.00  0.00     0.045 A   
ATOM     25  C14 UNL     1      -3.639   1.373  -3.063  1.00  0.00     0.037 A   
ATOM     26  C16 UNL     1      -3.916   0.674  -0.782  1.00  0.00     0.109 A   
ATOM     27  C15 UNL     1      -4.420   0.878  -2.042  1.00  0.00     0.108 A   
ATOM     28  O2  UNL     1      -4.844   0.178   0.076  1.00  0.00    -0.316 OA  
ATOM     29  O3  UNL     1      -5.731   0.541  -2.136  1.00  0.00    -0.316 OA  
ATOM     30  C18 UNL     1      -6.006   0.118  -0.784  1.00  0.00     0.337 C   
ENDBRANCH  21  22
ENDBRANCH  18  21
ENDBRANCH  17  18
BRANCH  17  31
ATOM     31  C19 UNL     1       1.287  -1.665  -2.204  1.00  0.00     0.010 C   
ATOM     32  C20 UNL     1       2.767  -1.279  -2.401  1.00  0.00     0.017 C   
ATOM     33  C21 UNL     1       1.233  -3.099  -1.630  1.00  0.00     0.017 C   
ATOM     34  C22 UNL     1       0.611  -1.714  -3.595  1.00  0.00     0.017 C   
ENDBRANCH  17  31
ENDBRANCH   3  17
TORSDOF 9
