REMARK SMILES Cc1cscc1[C@@H](CO)n1cc([C@@H]([NH2+]Cc2ccc3c(c2)OCO3)C(C)(C)C)nn1
REMARK SMILES IDX 10 1 11 2 12 3 29 4 30 5 7 7 6 8 2 9 3 10 4 11 5 12 1 13
REMARK SMILES IDX 8 14 9 15 13 17 14 18 15 21 16 22 17 23 21 24 18 25 20 26
REMARK SMILES IDX 19 27 22 28 24 29 23 30 25 31 26 32 27 33 28 34
REMARK H PARENT 11 6 9 16 14 19 14 20
ROOT
ATOM     1   N1  UNL     1       1.298  -0.655  -0.670  1.00  0.00    -0.202 N   
ATOM     2   C8  UNL     1       0.727  -0.191   0.484  1.00  0.00     0.046 A   
ATOM     3   C9  UNL     1       0.139  -1.302   1.042  1.00  0.00     0.127 A   
ATOM     4   N3  UNL     1       0.332  -2.378   0.211  1.00  0.00    -0.132 NA  
ATOM     5   N4  UNL     1       1.044  -1.974  -0.827  1.00  0.00    -0.075 NA  
ATOM     6   H10 UNL     1       0.808   0.841   0.798  1.00  0.00     0.083 HD  
ENDROOT
BRANCH   1   7
ATOM     7   C6  UNL     1       2.144   0.043  -1.640  1.00  0.00     0.156 C   
BRANCH   7   8
ATOM     8   C5  UNL     1       1.594   1.424  -1.974  1.00  0.00    -0.013 A   
ATOM     9   C2  UNL     1       0.684   1.704  -3.072  1.00  0.00    -0.039 A   
ATOM     10  C3  UNL     1       0.372   3.050  -3.139  1.00  0.00     0.049 A   
ATOM     11  S1  UNL     1       1.114   3.969  -1.914  1.00  0.00    -0.105 S   
ATOM     12  C4  UNL     1       1.896   2.591  -1.287  1.00  0.00     0.051 A   
ATOM     13  C1  UNL     1       0.150   0.689  -4.035  1.00  0.00     0.045 C   
ENDBRANCH   7   8
BRANCH   7  14
ATOM     14  C7  UNL     1       3.624   0.010  -1.212  1.00  0.00     0.185 C   
BRANCH  14  15
ATOM     15  O1  UNL     1       3.846   0.590   0.075  1.00  0.00    -0.394 OA  
ATOM     16  H9  UNL     1       4.807   0.549   0.241  1.00  0.00     0.210 HD  
ENDBRANCH  14  15
ENDBRANCH   7  14
ENDBRANCH   1   7
BRANCH   3  17
ATOM     17  C10 UNL     1      -0.671  -1.475   2.290  1.00  0.00     0.120 C   
BRANCH  17  18
ATOM     18  N2  UNL     1      -1.726  -2.534   2.023  1.00  0.00     0.250 N   
ATOM     19  H12 UNL     1      -1.370  -3.080   1.221  1.00  0.00     0.199 HD  
ATOM     20  H13 UNL     1      -1.792  -3.204   2.793  1.00  0.00     0.199 HD  
BRANCH  18  21
ATOM     21  C11 UNL     1      -3.088  -2.038   1.680  1.00  0.00     0.164 C   
BRANCH  21  22
ATOM     22  C12 UNL     1      -3.135  -1.182   0.445  1.00  0.00    -0.002 A   
ATOM     23  C13 UNL     1      -2.937  -1.758  -0.834  1.00  0.00     0.012 A   
ATOM     24  C17 UNL     1      -3.334   0.205   0.554  1.00  0.00     0.045 A   
ATOM     25  C14 UNL     1      -2.922  -0.965  -1.984  1.00  0.00     0.037 A   
ATOM     26  C16 UNL     1      -3.310   0.960  -0.600  1.00  0.00     0.109 A   
ATOM     27  C15 UNL     1      -3.107   0.392  -1.833  1.00  0.00     0.108 A   
ATOM     28  O2  UNL     1      -3.465   2.308  -0.666  1.00  0.00    -0.316 OA  
ATOM     29  O3  UNL     1      -3.108   1.310  -2.833  1.00  0.00    -0.316 OA  
ATOM     30  C18 UNL     1      -3.377   2.521  -2.091  1.00  0.00     0.337 C   
ENDBRANCH  21  22
ENDBRANCH  18  21
ENDBRANCH  17  18
BRANCH  17  31
ATOM     31  C19 UNL     1       0.172  -1.843   3.560  1.00  0.00     0.010 C   
ATOM     32  C20 UNL     1       1.227  -0.746   3.831  1.00  0.00     0.017 C   
ATOM     33  C21 UNL     1      -0.740  -1.904   4.808  1.00  0.00     0.017 C   
ATOM     34  C22 UNL     1       0.904  -3.193   3.420  1.00  0.00     0.017 C   
ENDBRANCH  17  31
ENDBRANCH   3  17
TORSDOF 9
