REMARK SMILES CCC[C@H](c1cnn[nH]1)n1cc([C@H](CC(C)C)[NH2+]Cc2ccc3c(c2)OCO3)nn1
REMARK SMILES IDX 10 1 11 2 12 3 29 4 30 5 4 7 3 8 2 9 1 10 5 11 6 12 9 13
REMARK SMILES IDX 7 14 8 15 13 17 14 18 15 19 16 20 17 21 18 22 19 25 20 26
REMARK SMILES IDX 21 27 25 28 22 29 24 30 23 31 26 32 28 33 27 34
REMARK H PARENT 11 6 9 16 18 23 18 24
ROOT
ATOM     1   N4  UNL     1      -1.429   1.254   1.152  1.00  0.00    -0.203 N   
ATOM     2   C7  UNL     1      -0.629   0.897   0.099  1.00  0.00     0.046 A   
ATOM     3   C8  UNL     1      -0.588   2.026  -0.689  1.00  0.00     0.127 A   
ATOM     4   N6  UNL     1      -1.331   3.014  -0.101  1.00  0.00    -0.132 NA  
ATOM     5   N7  UNL     1      -1.851   2.529   1.016  1.00  0.00    -0.075 NA  
ATOM     6   H11 UNL     1      -0.225  -0.099  -0.016  1.00  0.00     0.083 HD  
ENDROOT
BRANCH   1   7
ATOM     7   C4  UNL     1      -2.024   0.398   2.180  1.00  0.00     0.147 C   
BRANCH   7   8
ATOM     8   C3  UNL     1      -1.014  -0.540   2.865  1.00  0.00     0.031 C   
BRANCH   8   9
ATOM     9   C2  UNL     1       0.052   0.224   3.657  1.00  0.00    -0.001 C   
ATOM     10  C1  UNL     1       1.006  -0.727   4.362  1.00  0.00     0.004 C   
ENDBRANCH   8   9
ENDBRANCH   7   8
BRANCH   7  11
ATOM     11  C5  UNL     1      -3.158  -0.338   1.541  1.00  0.00     0.069 A   
ATOM     12  C6  UNL     1      -3.291  -1.577   0.953  1.00  0.00     0.160 A   
ATOM     13  N3  UNL     1      -4.394   0.230   1.367  1.00  0.00    -0.220 N   
ATOM     14  N1  UNL     1      -4.535  -1.689   0.405  1.00  0.00    -0.141 NA  
ATOM     15  N2  UNL     1      -5.195  -0.566   0.648  1.00  0.00    -0.079 NA  
ATOM     16  H10 UNL     1      -4.743   1.138   1.657  1.00  0.00     0.177 HD  
ENDBRANCH   7  11
ENDBRANCH   1   7
BRANCH   3  17
ATOM     17  C9  UNL     1       0.016   2.248  -2.033  1.00  0.00     0.114 C   
BRANCH  17  18
ATOM     18  C10 UNL     1       1.231   3.196  -1.988  1.00  0.00     0.064 C   
BRANCH  18  19
ATOM     19  C11 UNL     1       2.425   2.688  -1.151  1.00  0.00    -0.012 C   
ATOM     20  C12 UNL     1       3.529   3.749  -1.131  1.00  0.00     0.007 C   
ATOM     21  C13 UNL     1       2.989   1.368  -1.680  1.00  0.00     0.007 C   
ENDBRANCH  18  19
ENDBRANCH  17  18
BRANCH  17  22
ATOM     22  N5  UNL     1      -0.997   2.877  -2.973  1.00  0.00     0.249 N   
ATOM     23  H22 UNL     1      -0.543   3.109  -3.861  1.00  0.00     0.199 HD  
ATOM     24  H23 UNL     1      -1.293   3.761  -2.539  1.00  0.00     0.199 HD  
BRANCH  22  25
ATOM     25  C14 UNL     1      -2.237   2.085  -3.251  1.00  0.00     0.164 C   
BRANCH  25  26
ATOM     26  C15 UNL     1      -1.962   0.723  -3.825  1.00  0.00    -0.002 A   
ATOM     27  C16 UNL     1      -1.437   0.583  -5.132  1.00  0.00     0.012 A   
ATOM     28  C20 UNL     1      -2.197  -0.424  -3.047  1.00  0.00     0.045 A   
ATOM     29  C17 UNL     1      -1.135  -0.681  -5.651  1.00  0.00     0.037 A   
ATOM     30  C19 UNL     1      -1.881  -1.653  -3.586  1.00  0.00     0.109 A   
ATOM     31  C18 UNL     1      -1.365  -1.778  -4.852  1.00  0.00     0.108 A   
ATOM     32  O1  UNL     1      -2.021  -2.851  -2.961  1.00  0.00    -0.316 OA  
ATOM     33  O2  UNL     1      -1.126  -3.073  -5.187  1.00  0.00    -0.316 OA  
ATOM     34  C21 UNL     1      -1.599  -3.756  -4.006  1.00  0.00     0.337 C   
ENDBRANCH  25  26
ENDBRANCH  22  25
ENDBRANCH  17  22
ENDBRANCH   3  17
TORSDOF 10
