REMARK SMILES CCC[C@@H](c1cnn[nH]1)n1cc([C@H](CC(C)C)[NH2+]Cc2ccc3c(c2)OCO3)nn1
REMARK SMILES IDX 10 1 11 2 12 3 29 4 30 5 4 7 3 8 2 9 1 10 5 11 6 12 9 13
REMARK SMILES IDX 7 14 8 15 13 17 14 18 15 19 16 20 17 21 18 22 19 25 20 26
REMARK SMILES IDX 21 27 25 28 22 29 24 30 23 31 26 32 28 33 27 34
REMARK H PARENT 11 6 9 16 18 23 18 24
ROOT
ATOM     1   N4  UNL     1      -1.210  -0.355   1.308  1.00  0.00    -0.203 N   
ATOM     2   C7  UNL     1      -0.916  -1.492   0.605  1.00  0.00     0.046 A   
ATOM     3   C8  UNL     1       0.411  -1.339   0.261  1.00  0.00     0.127 A   
ATOM     4   N6  UNL     1       0.864  -0.135   0.733  1.00  0.00    -0.132 NA  
ATOM     5   N7  UNL     1      -0.131   0.457   1.373  1.00  0.00    -0.075 NA  
ATOM     6   H11 UNL     1      -1.652  -2.260   0.409  1.00  0.00     0.083 HD  
ENDROOT
BRANCH   1   7
ATOM     7   C4  UNL     1      -2.508   0.072   1.830  1.00  0.00     0.147 C   
BRANCH   7   8
ATOM     8   C3  UNL     1      -2.470   0.447   3.323  1.00  0.00     0.031 C   
BRANCH   8   9
ATOM     9   C2  UNL     1      -2.108  -0.743   4.219  1.00  0.00    -0.001 C   
ATOM     10  C1  UNL     1      -2.158  -0.363   5.691  1.00  0.00     0.004 C   
ENDBRANCH   8   9
ENDBRANCH   7   8
BRANCH   7  11
ATOM     11  C5  UNL     1      -3.032   1.189   0.987  1.00  0.00     0.069 A   
ATOM     12  C6  UNL     1      -4.184   1.347   0.249  1.00  0.00     0.160 A   
ATOM     13  N3  UNL     1      -2.357   2.365   0.777  1.00  0.00    -0.220 N   
ATOM     14  N1  UNL     1      -4.145   2.544  -0.404  1.00  0.00    -0.141 NA  
ATOM     15  N2  UNL     1      -3.012   3.151  -0.085  1.00  0.00    -0.079 NA  
ATOM     16  H10 UNL     1      -1.458   2.667   1.140  1.00  0.00     0.177 HD  
ENDBRANCH   7  11
ENDBRANCH   1   7
BRANCH   3  17
ATOM     17  C9  UNL     1       1.310  -2.179  -0.581  1.00  0.00     0.114 C   
BRANCH  17  18
ATOM     18  C10 UNL     1       2.514  -2.766   0.180  1.00  0.00     0.064 C   
BRANCH  18  19
ATOM     19  C11 UNL     1       2.230  -3.803   1.291  1.00  0.00    -0.012 C   
ATOM     20  C12 UNL     1       1.241  -4.887   0.864  1.00  0.00     0.007 C   
ATOM     21  C13 UNL     1       1.802  -3.171   2.615  1.00  0.00     0.007 C   
ENDBRANCH  18  19
ENDBRANCH  17  18
BRANCH  17  22
ATOM     22  N5  UNL     1       1.872  -1.323  -1.698  1.00  0.00     0.249 N   
ATOM     23  H22 UNL     1       2.694  -1.764  -2.124  1.00  0.00     0.199 HD  
ATOM     24  H23 UNL     1       2.210  -0.448  -1.270  1.00  0.00     0.199 HD  
BRANCH  22  25
ATOM     25  C14 UNL     1       0.905  -0.964  -2.772  1.00  0.00     0.164 C   
BRANCH  25  26
ATOM     26  C15 UNL     1       1.539  -0.050  -3.781  1.00  0.00    -0.002 A   
ATOM     27  C16 UNL     1       1.356   1.351  -3.687  1.00  0.00     0.012 A   
ATOM     28  C20 UNL     1       2.341  -0.575  -4.808  1.00  0.00     0.045 A   
ATOM     29  C17 UNL     1       1.947   2.218  -4.613  1.00  0.00     0.037 A   
ATOM     30  C19 UNL     1       2.909   0.308  -5.705  1.00  0.00     0.109 A   
ATOM     31  C18 UNL     1       2.717   1.664  -5.612  1.00  0.00     0.108 A   
ATOM     32  O1  UNL     1       3.690  -0.035  -6.761  1.00  0.00    -0.316 OA  
ATOM     33  O2  UNL     1       3.352   2.348  -6.597  1.00  0.00    -0.316 OA  
ATOM     34  C21 UNL     1       3.946   1.264  -7.344  1.00  0.00     0.337 C   
ENDBRANCH  25  26
ENDBRANCH  22  25
ENDBRANCH  17  22
ENDBRANCH   3  17
TORSDOF 10
