REMARK SMILES CC(C)C[C@H]([NH2+]Cc1ccc2c(c1)OCO2)c1cn(CCc2ccc3c(c2)OCO3)nn1
REMARK SMILES IDX 17 1 18 2 19 3 31 4 32 5 5 7 4 8 2 9 1 10 3 11 6 12 7 15
REMARK SMILES IDX 8 16 9 17 13 18 10 19 12 20 11 21 14 22 16 23 15 24 20 25
REMARK SMILES IDX 21 26 22 27 23 28 27 29 24 30 26 31 25 32 28 33 30 34 29 35
REMARK H PARENT 18 6 6 13 6 14
ROOT
ATOM     1   C14 UNL     1      -0.855   1.230   1.340  1.00  0.00     0.127 A   
ATOM     2   C15 UNL     1       0.090   1.820   2.148  1.00  0.00     0.045 A   
ATOM     3   N2  UNL     1       0.202   0.959   3.202  1.00  0.00    -0.212 N   
ATOM     4   N3  UNL     1      -0.676  -0.055   3.091  1.00  0.00    -0.076 NA  
ATOM     5   N4  UNL     1      -1.318   0.090   1.944  1.00  0.00    -0.132 NA  
ATOM     6   H20 UNL     1       0.712   2.700   2.050  1.00  0.00     0.083 HD  
ENDROOT
BRANCH   1   7
ATOM     7   C5  UNL     1      -1.332   1.574  -0.034  1.00  0.00     0.114 C   
BRANCH   7   8
ATOM     8   C4  UNL     1      -2.724   2.233   0.013  1.00  0.00     0.064 C   
BRANCH   8   9
ATOM     9   C2  UNL     1      -3.312   2.695  -1.338  1.00  0.00    -0.012 C   
ATOM     10  C1  UNL     1      -2.397   3.674  -2.074  1.00  0.00     0.007 C   
ATOM     11  C3  UNL     1      -4.678   3.348  -1.108  1.00  0.00     0.007 C   
ENDBRANCH   8   9
ENDBRANCH   7   8
BRANCH   7  12
ATOM     12  N1  UNL     1      -1.398   0.326  -0.869  1.00  0.00     0.249 N   
ATOM     13  H11 UNL     1      -1.912  -0.378  -0.316  1.00  0.00     0.199 HD  
ATOM     14  H12 UNL     1      -1.937   0.465  -1.728  1.00  0.00     0.199 HD  
BRANCH  12  15
ATOM     15  C6  UNL     1      -0.079  -0.271  -1.222  1.00  0.00     0.164 C   
BRANCH  15  16
ATOM     16  C7  UNL     1      -0.268  -1.474  -2.101  1.00  0.00    -0.002 A   
ATOM     17  C8  UNL     1      -0.300  -2.771  -1.537  1.00  0.00     0.012 A   
ATOM     18  C12 UNL     1      -0.462  -1.315  -3.484  1.00  0.00     0.045 A   
ATOM     19  C9  UNL     1      -0.515  -3.897  -2.339  1.00  0.00     0.037 A   
ATOM     20  C11 UNL     1      -0.677  -2.444  -4.244  1.00  0.00     0.109 A   
ATOM     21  C10 UNL     1      -0.702  -3.699  -3.689  1.00  0.00     0.108 A   
ATOM     22  O1  UNL     1      -0.897  -2.463  -5.586  1.00  0.00    -0.316 OA  
ATOM     23  O2  UNL     1      -0.933  -4.669  -4.612  1.00  0.00    -0.316 OA  
ATOM     24  C13 UNL     1      -1.032  -3.884  -5.819  1.00  0.00     0.337 C   
ENDBRANCH  15  16
ENDBRANCH  12  15
ENDBRANCH   7  12
ENDBRANCH   1   7
BRANCH   3  25
ATOM     25  C16 UNL     1       1.170   0.994   4.278  1.00  0.00     0.139 C   
BRANCH  25  26
ATOM     26  C17 UNL     1       2.017  -0.278   4.388  1.00  0.00     0.057 C   
BRANCH  26  27
ATOM     27  C18 UNL     1       2.666  -0.697   3.086  1.00  0.00    -0.044 A   
ATOM     28  C19 UNL     1       2.230  -1.877   2.437  1.00  0.00     0.006 A   
ATOM     29  C23 UNL     1       3.682   0.077   2.505  1.00  0.00     0.040 A   
ATOM     30  C20 UNL     1       2.791  -2.286   1.224  1.00  0.00     0.036 A   
ATOM     31  C22 UNL     1       4.216  -0.352   1.306  1.00  0.00     0.109 A   
ATOM     32  C21 UNL     1       3.784  -1.500   0.684  1.00  0.00     0.108 A   
ATOM     33  O3  UNL     1       5.199   0.275   0.605  1.00  0.00    -0.316 OA  
ATOM     34  O4  UNL     1       4.436  -1.734  -0.484  1.00  0.00    -0.316 OA  
ATOM     35  C24 UNL     1       5.411  -0.669  -0.469  1.00  0.00     0.337 C   
ENDBRANCH  26  27
ENDBRANCH  25  26
ENDBRANCH   3  25
TORSDOF 9
