REMARK SMILES Cc1nc(-n2cc([C@@H]([NH2+]Cc3ccc4c(c3)OCO4)C(C)C)nn2)sc1C
REMARK SMILES IDX 8 1 7 2 5 3 6 4 24 5 23 6 4 7 2 8 3 9 26 10 25 11 1 12 27 13
REMARK SMILES IDX 9 14 10 17 11 18 12 19 16 20 13 21 15 22 14 23 17 24 19 25
REMARK SMILES IDX 18 26 20 27 21 28 22 29
REMARK H PARENT 9 15 9 16
ROOT
ATOM     1   C6  UNL     1       0.780  -0.372  -1.652  1.00  0.00     0.117 C   
ENDROOT
BRANCH   1   2
ATOM     2   C5  UNL     1       0.001   0.840  -1.250  1.00  0.00     0.128 A   
ATOM     3   N2  UNL     1      -0.971   2.543  -0.277  1.00  0.00    -0.156 N   
ATOM     4   C4  UNL     1      -0.052   1.532  -0.063  1.00  0.00     0.137 A   
ATOM     5   N5  UNL     1      -1.471   2.427  -1.534  1.00  0.00    -0.069 NA  
ATOM     6   N4  UNL     1      -0.882   1.403  -2.133  1.00  0.00    -0.131 NA  
BRANCH   3   7
ATOM     7   C3  UNL     1      -1.388   3.532   0.607  1.00  0.00     0.185 A   
ATOM     8   C2  UNL     1      -1.520   4.701   2.469  1.00  0.00     0.050 A   
ATOM     9   N1  UNL     1      -0.918   3.624   1.832  1.00  0.00    -0.229 NA  
ATOM     10  C18 UNL     1      -2.446   5.390   1.699  1.00  0.00     0.011 A   
ATOM     11  S1  UNL     1      -2.546   4.681   0.136  1.00  0.00    -0.055 S   
ATOM     12  C1  UNL     1      -1.133   4.999   3.875  1.00  0.00     0.068 C   
ATOM     13  C19 UNL     1      -3.277   6.577   2.042  1.00  0.00     0.054 C   
ENDBRANCH   3   7
ENDBRANCH   1   2
BRANCH   1  14
ATOM     14  N3  UNL     1      -0.012  -1.199  -2.645  1.00  0.00     0.249 N   
ATOM     15  H6  UNL     1      -0.355  -0.547  -3.365  1.00  0.00     0.199 HD  
ATOM     16  H7  UNL     1       0.603  -1.872  -3.114  1.00  0.00     0.199 HD  
BRANCH  14  17
ATOM     17  C7  UNL     1      -1.202  -1.923  -2.105  1.00  0.00     0.164 C   
BRANCH  17  18
ATOM     18  C8  UNL     1      -0.833  -3.027  -1.154  1.00  0.00    -0.002 A   
ATOM     19  C9  UNL     1      -1.079  -2.887   0.233  1.00  0.00     0.012 A   
ATOM     20  C13 UNL     1      -0.211  -4.194  -1.631  1.00  0.00     0.045 A   
ATOM     21  C10 UNL     1      -0.706  -3.889   1.135  1.00  0.00     0.037 A   
ATOM     22  C12 UNL     1       0.143  -5.163  -0.715  1.00  0.00     0.109 A   
ATOM     23  C11 UNL     1      -0.095  -5.015   0.629  1.00  0.00     0.108 A   
ATOM     24  O1  UNL     1       0.750  -6.342  -1.008  1.00  0.00    -0.316 OA  
ATOM     25  O2  UNL     1       0.334  -6.081   1.352  1.00  0.00    -0.316 OA  
ATOM     26  C14 UNL     1       0.846  -6.936   0.307  1.00  0.00     0.337 C   
ENDBRANCH  17  18
ENDBRANCH  14  17
ENDBRANCH   1  14
BRANCH   1  27
ATOM     27  C15 UNL     1       2.165  -0.056  -2.280  1.00  0.00     0.037 C   
ATOM     28  C16 UNL     1       2.102   0.811  -3.543  1.00  0.00     0.014 C   
ATOM     29  C17 UNL     1       3.115   0.583  -1.260  1.00  0.00     0.014 C   
ENDBRANCH   1  27
TORSDOF 6
