REMARK SMILES CC(C)C[C@H]([NH2+]Cc1ccc2c(c1)OCO2)c1cn(C[C@H](C)c2ccccn2)nn1
REMARK SMILES IDX 17 1 18 2 19 3 29 4 30 5 5 7 4 8 2 9 1 10 3 11 6 12 7 15
REMARK SMILES IDX 8 16 9 17 13 18 10 19 12 20 11 21 14 22 16 23 15 24 20 25
REMARK SMILES IDX 21 26 22 27 23 28 24 29 28 30 25 31 27 32 26 33
REMARK H PARENT 18 6 6 13 6 14
ROOT
ATOM     1   C14 UNL     1      -1.369  -0.739  -0.037  1.00  0.00     0.127 A   
ATOM     2   C15 UNL     1      -1.940  -0.136  -1.134  1.00  0.00     0.045 A   
ATOM     3   N2  UNL     1      -3.115   0.369  -0.656  1.00  0.00    -0.211 N   
ATOM     4   N4  UNL     1      -3.262   0.089   0.653  1.00  0.00    -0.076 NA  
ATOM     5   N5  UNL     1      -2.192  -0.582   1.047  1.00  0.00    -0.132 NA  
ATOM     6   H20 UNL     1      -1.629   0.003  -2.162  1.00  0.00     0.083 HD  
ENDROOT
BRANCH   1   7
ATOM     7   C5  UNL     1      -0.047  -1.408   0.133  1.00  0.00     0.114 C   
BRANCH   7   8
ATOM     8   C4  UNL     1      -0.169  -2.932   0.309  1.00  0.00     0.064 C   
BRANCH   8   9
ATOM     9   C2  UNL     1      -0.822  -3.679  -0.875  1.00  0.00    -0.012 C   
ATOM     10  C1  UNL     1      -0.941  -5.169  -0.541  1.00  0.00     0.007 C   
ATOM     11  C3  UNL     1      -0.042  -3.503  -2.177  1.00  0.00     0.007 C   
ENDBRANCH   8   9
ENDBRANCH   7   8
BRANCH   7  12
ATOM     12  N1  UNL     1       0.602  -0.821   1.362  1.00  0.00     0.249 N   
ATOM     13  H11 UNL     1       0.050  -1.104   2.184  1.00  0.00     0.199 HD  
ATOM     14  H12 UNL     1       0.456   0.200   1.327  1.00  0.00     0.199 HD  
BRANCH  12  15
ATOM     15  C6  UNL     1       2.042  -1.089   1.573  1.00  0.00     0.164 C   
BRANCH  15  16
ATOM     16  C7  UNL     1       2.598  -0.200   2.651  1.00  0.00    -0.002 A   
ATOM     17  C8  UNL     1       3.219   1.028   2.313  1.00  0.00     0.012 A   
ATOM     18  C12 UNL     1       2.464  -0.557   4.004  1.00  0.00     0.045 A   
ATOM     19  C9  UNL     1       3.716   1.880   3.306  1.00  0.00     0.037 A   
ATOM     20  C11 UNL     1       2.965   0.305   4.958  1.00  0.00     0.109 A   
ATOM     21  C10 UNL     1       3.575   1.488   4.620  1.00  0.00     0.108 A   
ATOM     22  O1  UNL     1       2.923   0.110   6.302  1.00  0.00    -0.316 OA  
ATOM     23  O2  UNL     1       3.996   2.185   5.707  1.00  0.00    -0.316 OA  
ATOM     24  C13 UNL     1       3.611   1.290   6.774  1.00  0.00     0.337 C   
ENDBRANCH  15  16
ENDBRANCH  12  15
ENDBRANCH   7  12
ENDBRANCH   1   7
BRANCH   3  25
ATOM     25  C16 UNL     1      -4.122   1.125  -1.373  1.00  0.00     0.143 C   
BRANCH  25  26
ATOM     26  C17 UNL     1      -4.262   2.571  -0.870  1.00  0.00     0.054 C   
ATOM     27  C18 UNL     1      -5.379   3.286  -1.637  1.00  0.00     0.016 C   
BRANCH  26  28
ATOM     28  C19 UNL     1      -2.970   3.360  -0.997  1.00  0.00     0.045 A   
ATOM     29  C20 UNL     1      -2.641   4.317  -0.034  1.00  0.00     0.024 A   
ATOM     30  N3  UNL     1      -2.196   3.133  -2.089  1.00  0.00    -0.261 NA  
ATOM     31  C21 UNL     1      -1.485   5.076  -0.202  1.00  0.00     0.003 A   
ATOM     32  C23 UNL     1      -1.091   3.902  -2.236  1.00  0.00     0.111 A   
ATOM     33  C22 UNL     1      -0.696   4.871  -1.327  1.00  0.00     0.020 A   
ENDBRANCH  26  28
ENDBRANCH  25  26
ENDBRANCH   3  25
TORSDOF 9
