REMARK SMILES CC(C)C[C@H]([NH2+]Cc1ccc2c(c1)OCO2)c1cn(C[C@@H](C)c2ccccn2)nn1
REMARK SMILES IDX 17 1 18 2 19 3 29 4 30 5 5 7 4 8 2 9 1 10 3 11 6 12 7 15
REMARK SMILES IDX 8 16 9 17 13 18 10 19 12 20 11 21 14 22 16 23 15 24 20 25
REMARK SMILES IDX 21 26 22 27 23 28 24 29 28 30 25 31 27 32 26 33
REMARK H PARENT 18 6 6 13 6 14
ROOT
ATOM     1   C14 UNL     1      -1.889  -0.430   0.293  1.00  0.00     0.127 A   
ATOM     2   C15 UNL     1      -1.228  -1.541   0.763  1.00  0.00     0.045 A   
ATOM     3   N2  UNL     1      -1.862  -2.585   0.153  1.00  0.00    -0.211 N   
ATOM     4   N4  UNL     1      -2.898  -2.147  -0.590  1.00  0.00    -0.076 NA  
ATOM     5   N5  UNL     1      -2.917  -0.827  -0.521  1.00  0.00    -0.132 NA  
ATOM     6   H20 UNL     1      -0.370  -1.683   1.406  1.00  0.00     0.083 HD  
ENDROOT
BRANCH   1   7
ATOM     7   C5  UNL     1      -1.611   1.022   0.469  1.00  0.00     0.114 C   
BRANCH   7   8
ATOM     8   C4  UNL     1      -2.525   1.679   1.522  1.00  0.00     0.064 C   
BRANCH   8   9
ATOM     9   C2  UNL     1      -2.352   1.151   2.962  1.00  0.00    -0.012 C   
ATOM     10  C1  UNL     1      -3.357   1.843   3.888  1.00  0.00     0.007 C   
ATOM     11  C3  UNL     1      -0.933   1.362   3.496  1.00  0.00     0.007 C   
ENDBRANCH   8   9
ENDBRANCH   7   8
BRANCH   7  12
ATOM     12  N1  UNL     1      -1.859   1.751  -0.840  1.00  0.00     0.249 N   
ATOM     13  H11 UNL     1      -1.860   2.763  -0.687  1.00  0.00     0.199 HD  
ATOM     14  H12 UNL     1      -2.807   1.480  -1.139  1.00  0.00     0.199 HD  
BRANCH  12  15
ATOM     15  C6  UNL     1      -0.934   1.419  -1.966  1.00  0.00     0.164 C   
BRANCH  15  16
ATOM     16  C7  UNL     1       0.478   1.866  -1.715  1.00  0.00    -0.002 A   
ATOM     17  C8  UNL     1       0.819   3.239  -1.776  1.00  0.00     0.012 A   
ATOM     18  C12 UNL     1       1.467   0.921  -1.389  1.00  0.00     0.045 A   
ATOM     19  C9  UNL     1       2.124   3.667  -1.513  1.00  0.00     0.037 A   
ATOM     20  C11 UNL     1       2.744   1.377  -1.134  1.00  0.00     0.109 A   
ATOM     21  C10 UNL     1       3.063   2.712  -1.194  1.00  0.00     0.108 A   
ATOM     22  O1  UNL     1       3.810   0.604  -0.799  1.00  0.00    -0.316 OA  
ATOM     23  O2  UNL     1       4.370   2.946  -0.909  1.00  0.00    -0.316 OA  
ATOM     24  C13 UNL     1       4.851   1.603  -0.697  1.00  0.00     0.337 C   
ENDBRANCH  15  16
ENDBRANCH  12  15
ENDBRANCH   7  12
ENDBRANCH   1   7
BRANCH   3  25
ATOM     25  C16 UNL     1      -1.602  -4.002   0.283  1.00  0.00     0.143 C   
BRANCH  25  26
ATOM     26  C17 UNL     1      -0.678  -4.623  -0.780  1.00  0.00     0.054 C   
ATOM     27  C18 UNL     1      -1.026  -4.226  -2.216  1.00  0.00     0.016 C   
BRANCH  26  28
ATOM     28  C19 UNL     1       0.790  -4.360  -0.495  1.00  0.00     0.045 A   
ATOM     29  C20 UNL     1       1.674  -5.433  -0.376  1.00  0.00     0.024 A   
ATOM     30  N3  UNL     1       1.198  -3.071  -0.384  1.00  0.00    -0.261 NA  
ATOM     31  C21 UNL     1       3.020  -5.179  -0.130  1.00  0.00     0.003 A   
ATOM     32  C23 UNL     1       2.516  -2.858  -0.149  1.00  0.00     0.111 A   
ATOM     33  C22 UNL     1       3.453  -3.866  -0.015  1.00  0.00     0.020 A   
ENDBRANCH  26  28
ENDBRANCH  25  26
ENDBRANCH   3  25
TORSDOF 9
