REMARK SMILES CC[C@H](c1ccccn1)n1cc([C@@H]([NH2+]Cc2ccc3c(c2)OCO3)C(C)C)nn1
REMARK SMILES IDX 10 1 11 2 12 3 28 4 29 5 3 7 2 8 1 9 4 10 5 11 9 12 6 13
REMARK SMILES IDX 8 14 7 15 13 16 14 17 15 20 16 21 17 22 21 23 18 24 20 25
REMARK SMILES IDX 19 26 22 27 24 28 23 29 25 30 26 31 27 32
REMARK H PARENT 11 6 14 18 14 19
ROOT
ATOM     1   N2  UNL     1      -0.251  -0.186  -2.897  1.00  0.00    -0.203 N   
ATOM     2   C9  UNL     1      -0.224   0.573  -1.757  1.00  0.00     0.046 A   
ATOM     3   C10 UNL     1       1.094   0.543  -1.364  1.00  0.00     0.127 A   
ATOM     4   N4  UNL     1       1.818  -0.192  -2.266  1.00  0.00    -0.132 NA  
ATOM     5   N5  UNL     1       0.987  -0.636  -3.196  1.00  0.00    -0.075 NA  
ATOM     6   H11 UNL     1      -1.120   0.999  -1.327  1.00  0.00     0.083 HD  
ENDROOT
BRANCH   1   7
ATOM     7   C3  UNL     1      -1.399  -0.576  -3.714  1.00  0.00     0.148 C   
BRANCH   7   8
ATOM     8   C2  UNL     1      -2.248   0.640  -4.129  1.00  0.00     0.028 C   
ATOM     9   C1  UNL     1      -3.301   0.294  -5.173  1.00  0.00     0.006 C   
ENDBRANCH   7   8
BRANCH   7  10
ATOM     10  C4  UNL     1      -2.191  -1.637  -2.968  1.00  0.00     0.063 A   
ATOM     11  C5  UNL     1      -2.207  -2.953  -3.430  1.00  0.00     0.026 A   
ATOM     12  N1  UNL     1      -2.866  -1.258  -1.848  1.00  0.00    -0.259 NA  
ATOM     13  C6  UNL     1      -2.955  -3.903  -2.740  1.00  0.00     0.004 A   
ATOM     14  C8  UNL     1      -3.598  -2.200  -1.210  1.00  0.00     0.111 A   
ATOM     15  C7  UNL     1      -3.669  -3.521  -1.611  1.00  0.00     0.020 A   
ENDBRANCH   7  10
ENDBRANCH   1   7
BRANCH   3  16
ATOM     16  C11 UNL     1       1.753   1.067  -0.131  1.00  0.00     0.117 C   
BRANCH  16  17
ATOM     17  N3  UNL     1       2.599  -0.029   0.491  1.00  0.00     0.249 N   
ATOM     18  H13 UNL     1       3.096   0.327   1.310  1.00  0.00     0.199 HD  
ATOM     19  H14 UNL     1       3.300  -0.291  -0.214  1.00  0.00     0.199 HD  
BRANCH  17  20
ATOM     20  C12 UNL     1       1.882  -1.282   0.890  1.00  0.00     0.164 C   
BRANCH  20  21
ATOM     21  C13 UNL     1       0.816  -1.055   1.925  1.00  0.00    -0.002 A   
ATOM     22  C14 UNL     1      -0.551  -1.166   1.574  1.00  0.00     0.012 A   
ATOM     23  C18 UNL     1       1.165  -0.702   3.240  1.00  0.00     0.045 A   
ATOM     24  C15 UNL     1      -1.558  -0.919   2.513  1.00  0.00     0.037 A   
ATOM     25  C17 UNL     1       0.147  -0.466   4.141  1.00  0.00     0.109 A   
ATOM     26  C16 UNL     1      -1.175  -0.570   3.788  1.00  0.00     0.108 A   
ATOM     27  O1  UNL     1       0.312  -0.110   5.442  1.00  0.00    -0.316 OA  
ATOM     28  O2  UNL     1      -2.011  -0.295   4.823  1.00  0.00    -0.316 OA  
ATOM     29  C19 UNL     1      -1.064  -0.029   5.880  1.00  0.00     0.337 C   
ENDBRANCH  20  21
ENDBRANCH  17  20
ENDBRANCH  16  17
BRANCH  16  30
ATOM     30  C20 UNL     1       2.654   2.300  -0.424  1.00  0.00     0.037 C   
ATOM     31  C21 UNL     1       3.383   2.814   0.826  1.00  0.00     0.014 C   
ATOM     32  C22 UNL     1       1.835   3.459  -1.014  1.00  0.00     0.014 C   
ENDBRANCH  16  30
ENDBRANCH   3  16
TORSDOF 8
