REMARK SMILES CC[C@@H](c1ccccn1)n1cc([C@@H]([NH2+]Cc2ccc3c(c2)OCO3)C(C)C)nn1
REMARK SMILES IDX 10 1 11 2 12 3 28 4 29 5 3 7 2 8 1 9 4 10 5 11 9 12 6 13
REMARK SMILES IDX 8 14 7 15 13 16 14 17 15 20 16 21 17 22 21 23 18 24 20 25
REMARK SMILES IDX 19 26 22 27 24 28 23 29 25 30 26 31 27 32
REMARK H PARENT 11 6 14 18 14 19
ROOT
ATOM     1   N2  UNL     1      -0.785  -0.012  -2.192  1.00  0.00    -0.203 N   
ATOM     2   C9  UNL     1      -0.607  -0.644  -0.989  1.00  0.00     0.046 A   
ATOM     3   C10 UNL     1      -0.607   0.376  -0.067  1.00  0.00     0.127 A   
ATOM     4   N4  UNL     1      -0.748   1.573  -0.722  1.00  0.00    -0.132 NA  
ATOM     5   N5  UNL     1      -0.841   1.326  -2.018  1.00  0.00    -0.075 NA  
ATOM     6   H11 UNL     1      -0.526  -1.721  -0.913  1.00  0.00     0.083 HD  
ENDROOT
BRANCH   1   7
ATOM     7   C3  UNL     1      -0.872  -0.587  -3.531  1.00  0.00     0.148 C   
BRANCH   7   8
ATOM     8   C2  UNL     1       0.413  -1.331  -3.944  1.00  0.00     0.028 C   
ATOM     9   C1  UNL     1       1.616  -0.404  -4.073  1.00  0.00     0.006 C   
ENDBRANCH   7   8
BRANCH   7  10
ATOM     10  C4  UNL     1      -2.102  -1.476  -3.613  1.00  0.00     0.063 A   
ATOM     11  C5  UNL     1      -3.282  -0.989  -4.177  1.00  0.00     0.026 A   
ATOM     12  N1  UNL     1      -2.013  -2.730  -3.096  1.00  0.00    -0.259 NA  
ATOM     13  C6  UNL     1      -4.396  -1.822  -4.233  1.00  0.00     0.004 A   
ATOM     14  C8  UNL     1      -3.109  -3.519  -3.174  1.00  0.00     0.111 A   
ATOM     15  C7  UNL     1      -4.311  -3.113  -3.727  1.00  0.00     0.020 A   
ENDBRANCH   7  10
ENDBRANCH   1   7
BRANCH   3  16
ATOM     16  C11 UNL     1      -0.463   0.355   1.421  1.00  0.00     0.117 C   
BRANCH  16  17
ATOM     17  N3  UNL     1       0.044   1.690   1.916  1.00  0.00     0.249 N   
ATOM     18  H13 UNL     1      -0.497   2.403   1.407  1.00  0.00     0.199 HD  
ATOM     19  H14 UNL     1      -0.152   1.812   2.912  1.00  0.00     0.199 HD  
BRANCH  17  20
ATOM     20  C12 UNL     1       1.488   1.976   1.665  1.00  0.00     0.164 C   
BRANCH  20  21
ATOM     21  C13 UNL     1       2.399   1.163   2.542  1.00  0.00    -0.002 A   
ATOM     22  C14 UNL     1       2.529   1.469   3.919  1.00  0.00     0.012 A   
ATOM     23  C18 UNL     1       3.104   0.071   2.008  1.00  0.00     0.045 A   
ATOM     24  C15 UNL     1       3.345   0.697   4.753  1.00  0.00     0.037 A   
ATOM     25  C17 UNL     1       3.898  -0.671   2.857  1.00  0.00     0.109 A   
ATOM     26  C16 UNL     1       4.015  -0.368   4.191  1.00  0.00     0.108 A   
ATOM     27  O1  UNL     1       4.635  -1.756   2.505  1.00  0.00    -0.316 OA  
ATOM     28  O2  UNL     1       4.843  -1.222   4.846  1.00  0.00    -0.316 OA  
ATOM     29  C19 UNL     1       5.258  -2.086   3.767  1.00  0.00     0.337 C   
ENDBRANCH  20  21
ENDBRANCH  17  20
ENDBRANCH  16  17
BRANCH  16  30
ATOM     30  C20 UNL     1      -1.793  -0.010   2.133  1.00  0.00     0.037 C   
ATOM     31  C21 UNL     1      -2.883   1.060   2.005  1.00  0.00     0.014 C   
ATOM     32  C22 UNL     1      -1.568  -0.347   3.612  1.00  0.00     0.014 C   
ENDBRANCH  16  30
ENDBRANCH   3  16
TORSDOF 8
