REMARK SMILES Cc1nc(Cl)ccc1Cn1cc([C@@H]([NH2+]Cc2ccc3c(c2)OCO3)C2CCCC2)nn1
REMARK SMILES IDX 10 1 11 2 12 3 30 4 31 5 9 7 8 8 2 9 3 10 4 11 7 12 6 13
REMARK SMILES IDX 1 14 5 15 13 16 14 17 15 20 16 21 17 22 21 23 18 24 20 25
REMARK SMILES IDX 19 26 22 27 24 28 23 29 25 30 26 31 29 32 27 33 28 34
REMARK H PARENT 11 6 14 18 14 19
ROOT
ATOM     1   N2  UNL     1       0.335   0.334   2.541  1.00  0.00    -0.208 N   
ATOM     2   C8  UNL     1      -0.308   0.927   1.488  1.00  0.00     0.046 A   
ATOM     3   C9  UNL     1      -1.464   0.192   1.349  1.00  0.00     0.127 A   
ATOM     4   N4  UNL     1      -1.489  -0.794   2.302  1.00  0.00    -0.132 NA  
ATOM     5   N5  UNL     1      -0.393  -0.686   3.033  1.00  0.00    -0.076 NA  
ATOM     6   H8  UNL     1       0.111   1.765   0.948  1.00  0.00     0.083 HD  
ENDROOT
BRANCH   1   7
ATOM     7   C7  UNL     1       1.607   0.694   3.145  1.00  0.00     0.171 C   
BRANCH   7   8
ATOM     8   C6  UNL     1       2.757   0.465   2.198  1.00  0.00    -0.007 A   
ATOM     9   C2  UNL     1       3.272  -0.810   1.920  1.00  0.00     0.044 A   
ATOM     10  N1  UNL     1       4.288  -1.007   1.047  1.00  0.00    -0.241 NA  
ATOM     11  C3  UNL     1       4.821   0.072   0.442  1.00  0.00     0.129 A   
ATOM     12  C5  UNL     1       3.346   1.563   1.546  1.00  0.00     0.010 A   
ATOM     13  C4  UNL     1       4.395   1.366   0.654  1.00  0.00     0.041 A   
ATOM     14  C1  UNL     1       2.727  -2.060   2.550  1.00  0.00     0.067 C   
ATOM     15  CL1 UNL     1       6.091  -0.275  -0.653  1.00  0.00    -0.062 Cl  
ENDBRANCH   7   8
ENDBRANCH   1   7
BRANCH   3  16
ATOM     16  C10 UNL     1      -2.575   0.264   0.353  1.00  0.00     0.117 C   
BRANCH  16  17
ATOM     17  N3  UNL     1      -2.978  -1.150  -0.018  1.00  0.00     0.249 N   
ATOM     18  H10 UNL     1      -2.534  -1.766   0.684  1.00  0.00     0.199 HD  
ATOM     19  H11 UNL     1      -3.983  -1.293   0.117  1.00  0.00     0.199 HD  
BRANCH  17  20
ATOM     20  C11 UNL     1      -2.581  -1.616  -1.372  1.00  0.00     0.164 C   
BRANCH  20  21
ATOM     21  C12 UNL     1      -1.094  -1.682  -1.581  1.00  0.00    -0.002 A   
ATOM     22  C13 UNL     1      -0.447  -0.743  -2.420  1.00  0.00     0.012 A   
ATOM     23  C17 UNL     1      -0.332  -2.677  -0.944  1.00  0.00     0.045 A   
ATOM     24  C14 UNL     1       0.936  -0.795  -2.628  1.00  0.00     0.037 A   
ATOM     25  C16 UNL     1       1.027  -2.708  -1.179  1.00  0.00     0.109 A   
ATOM     26  C15 UNL     1       1.643  -1.794  -1.998  1.00  0.00     0.108 A   
ATOM     27  O1  UNL     1       1.898  -3.617  -0.668  1.00  0.00    -0.316 OA  
ATOM     28  O2  UNL     1       2.978  -2.014  -2.110  1.00  0.00    -0.316 OA  
ATOM     29  C18 UNL     1       3.128  -3.211  -1.315  1.00  0.00     0.337 C   
ENDBRANCH  20  21
ENDBRANCH  17  20
ENDBRANCH  16  17
BRANCH  16  30
ATOM     30  C19 UNL     1      -3.809   1.003   0.900  1.00  0.00     0.043 C   
ATOM     31  C20 UNL     1      -3.532   2.467   1.263  1.00  0.00     0.010 C   
ATOM     32  C23 UNL     1      -4.947   1.151  -0.115  1.00  0.00     0.010 C   
ATOM     33  C21 UNL     1      -4.909   3.123   1.315  1.00  0.00     0.001 C   
ATOM     34  C22 UNL     1      -5.832   2.243   0.475  1.00  0.00     0.001 C   
ENDBRANCH  16  30
ENDBRANCH   3  16
TORSDOF 7
