REMARK SMILES Cc1cc(CCn2cc([C@@H]([NH2+]Cc3ccc4c(c3)OCO4)C3CCCC3)nn2)ccn1
REMARK SMILES IDX 7 1 8 2 9 3 27 4 28 5 6 7 5 8 4 9 2 10 3 11 31 12 30 13
REMARK SMILES IDX 29 14 1 15 10 16 11 17 12 20 13 21 14 22 18 23 15 24 17 25
REMARK SMILES IDX 16 26 19 27 21 28 20 29 22 30 23 31 26 32 24 33 25 34
REMARK H PARENT 8 6 11 18 11 19
ROOT
ATOM     1   N1  UNL     1      -3.392   2.024  -1.244  1.00  0.00    -0.212 N   
ATOM     2   C7  UNL     1      -2.789   1.044  -1.983  1.00  0.00     0.045 A   
ATOM     3   C8  UNL     1      -2.234   0.213  -1.037  1.00  0.00     0.127 A   
ATOM     4   N3  UNL     1      -2.562   0.673   0.215  1.00  0.00    -0.132 NA  
ATOM     5   N4  UNL     1      -3.276   1.778   0.073  1.00  0.00    -0.076 NA  
ATOM     6   H9  UNL     1      -2.754   1.069  -3.063  1.00  0.00     0.083 HD  
ENDROOT
BRANCH   1   7
ATOM     7   C6  UNL     1      -3.947   3.275  -1.723  1.00  0.00     0.139 C   
BRANCH   7   8
ATOM     8   C5  UNL     1      -3.086   4.494  -1.361  1.00  0.00     0.057 C   
BRANCH   8   9
ATOM     9   C4  UNL     1      -1.621   4.336  -1.701  1.00  0.00    -0.043 A   
ATOM     10  C2  UNL     1       0.683   4.187  -1.008  1.00  0.00     0.037 A   
ATOM     11  C3  UNL     1      -0.655   4.404  -0.690  1.00  0.00     0.027 A   
ATOM     12  N5  UNL     1       1.089   3.874  -2.261  1.00  0.00    -0.262 NA  
ATOM     13  C24 UNL     1       0.154   3.879  -3.236  1.00  0.00     0.111 A   
ATOM     14  C23 UNL     1      -1.194   4.104  -3.011  1.00  0.00     0.024 A   
ATOM     15  C1  UNL     1       1.740   4.321   0.049  1.00  0.00     0.067 C   
ENDBRANCH   8   9
ENDBRANCH   7   8
ENDBRANCH   1   7
BRANCH   3  16
ATOM     16  C9  UNL     1      -1.306  -0.949  -1.177  1.00  0.00     0.117 C   
BRANCH  16  17
ATOM     17  N2  UNL     1      -0.253  -0.884  -0.107  1.00  0.00     0.249 N   
ATOM     18  H11 UNL     1      -0.741  -0.689   0.779  1.00  0.00     0.199 HD  
ATOM     19  H12 UNL     1       0.233  -1.775   0.020  1.00  0.00     0.199 HD  
BRANCH  17  20
ATOM     20  C10 UNL     1       0.761   0.196  -0.288  1.00  0.00     0.164 C   
BRANCH  20  21
ATOM     21  C11 UNL     1       1.696   0.232   0.887  1.00  0.00    -0.002 A   
ATOM     22  C12 UNL     1       1.315   0.904   2.074  1.00  0.00     0.012 A   
ATOM     23  C16 UNL     1       2.928  -0.444   0.837  1.00  0.00     0.045 A   
ATOM     24  C13 UNL     1       2.155   0.920   3.192  1.00  0.00     0.037 A   
ATOM     25  C15 UNL     1       3.732  -0.410   1.957  1.00  0.00     0.109 A   
ATOM     26  C14 UNL     1       3.358   0.254   3.101  1.00  0.00     0.108 A   
ATOM     27  O1  UNL     1       4.947  -1.008   2.076  1.00  0.00    -0.316 OA  
ATOM     28  O2  UNL     1       4.292   0.161   4.082  1.00  0.00    -0.316 OA  
ATOM     29  C17 UNL     1       5.314  -0.617   3.419  1.00  0.00     0.337 C   
ENDBRANCH  20  21
ENDBRANCH  17  20
ENDBRANCH  16  17
BRANCH  16  30
ATOM     30  C18 UNL     1      -2.057  -2.293  -1.144  1.00  0.00     0.043 C   
ATOM     31  C19 UNL     1      -1.198  -3.520  -1.460  1.00  0.00     0.010 C   
ATOM     32  C22 UNL     1      -2.736  -2.673   0.180  1.00  0.00     0.010 C   
ATOM     33  C20 UNL     1      -2.119  -4.671  -1.091  1.00  0.00     0.001 C   
ATOM     34  C21 UNL     1      -2.825  -4.202   0.177  1.00  0.00     0.001 C   
ENDBRANCH  16  30
ENDBRANCH   3  16
TORSDOF 8
