REMARK SMILES CCn1nccc1Cn1cc([C@@H]([NH2+]Cc2ccc3c(c2)OCO3)C(C)(C)C)nn1
REMARK SMILES IDX 9 1 10 2 11 3 28 4 29 5 8 7 7 8 3 9 4 10 5 11 6 12 2 13 1 14
REMARK SMILES IDX 12 15 13 16 14 19 15 20 16 21 20 22 17 23 19 24 18 25 21 26
REMARK SMILES IDX 23 27 22 28 24 29 25 30 26 31 27 32
REMARK H PARENT 10 6 13 17 13 18
ROOT
ATOM     1   N3  UNL     1       0.845  -0.851   1.844  1.00  0.00    -0.206 N   
ATOM     2   C7  UNL     1       0.417   0.406   1.511  1.00  0.00     0.046 A   
ATOM     3   C8  UNL     1      -0.899   0.228   1.149  1.00  0.00     0.127 A   
ATOM     4   N5  UNL     1      -1.217  -1.104   1.255  1.00  0.00    -0.132 NA  
ATOM     5   N6  UNL     1      -0.145  -1.751   1.682  1.00  0.00    -0.076 NA  
ATOM     6   H10 UNL     1       1.066   1.269   1.558  1.00  0.00     0.083 HD  
ENDROOT
BRANCH   1   7
ATOM     7   C6  UNL     1       2.136  -1.258   2.380  1.00  0.00     0.187 C   
BRANCH   7   8
ATOM     8   C5  UNL     1       3.251  -0.890   1.466  1.00  0.00     0.049 A   
ATOM     9   N1  UNL     1       3.654  -1.645   0.389  1.00  0.00    -0.228 N   
ATOM     10  N2  UNL     1       4.673  -1.085  -0.290  1.00  0.00    -0.190 NA  
ATOM     11  C3  UNL     1       4.961   0.020   0.396  1.00  0.00     0.133 A   
ATOM     12  C4  UNL     1       4.108   0.195   1.496  1.00  0.00     0.044 A   
BRANCH   9  13
ATOM     13  C2  UNL     1       3.141  -2.927  -0.064  1.00  0.00     0.129 C   
ATOM     14  C1  UNL     1       3.831  -4.094   0.621  1.00  0.00     0.027 C   
ENDBRANCH   9  13
ENDBRANCH   7   8
ENDBRANCH   1   7
BRANCH   3  15
ATOM     15  C9  UNL     1      -1.929   1.189   0.634  1.00  0.00     0.120 C   
BRANCH  15  16
ATOM     16  N4  UNL     1      -2.830   0.448  -0.339  1.00  0.00     0.250 N   
ATOM     17  H12 UNL     1      -3.817   0.665  -0.182  1.00  0.00     0.199 HD  
ATOM     18  H13 UNL     1      -2.733  -0.553  -0.104  1.00  0.00     0.199 HD  
BRANCH  16  19
ATOM     19  C10 UNL     1      -2.520   0.619  -1.786  1.00  0.00     0.164 C   
BRANCH  19  20
ATOM     20  C11 UNL     1      -1.203   0.025  -2.197  1.00  0.00    -0.002 A   
ATOM     21  C12 UNL     1      -1.054  -1.379  -2.301  1.00  0.00     0.012 A   
ATOM     22  C16 UNL     1      -0.101   0.857  -2.459  1.00  0.00     0.045 A   
ATOM     23  C13 UNL     1       0.171  -1.948  -2.663  1.00  0.00     0.037 A   
ATOM     24  C15 UNL     1       1.093   0.263  -2.811  1.00  0.00     0.109 A   
ATOM     25  C14 UNL     1       1.225  -1.099  -2.913  1.00  0.00     0.108 A   
ATOM     26  O1  UNL     1       2.248   0.920  -3.097  1.00  0.00    -0.316 OA  
ATOM     27  O2  UNL     1       2.477  -1.474  -3.282  1.00  0.00    -0.316 OA  
ATOM     28  C17 UNL     1       3.119  -0.188  -3.425  1.00  0.00     0.337 C   
ENDBRANCH  19  20
ENDBRANCH  16  19
ENDBRANCH  15  16
BRANCH  15  29
ATOM     29  C18 UNL     1      -2.784   1.877   1.756  1.00  0.00     0.010 C   
ATOM     30  C19 UNL     1      -1.864   2.641   2.736  1.00  0.00     0.017 C   
ATOM     31  C20 UNL     1      -3.623   0.871   2.569  1.00  0.00     0.017 C   
ATOM     32  C21 UNL     1      -3.738   2.923   1.132  1.00  0.00     0.017 C   
ENDBRANCH  15  29
ENDBRANCH   3  15
TORSDOF 8
