REMARK SMILES c1ccn2cc(Cn3cc([C@@H]([NH2+]Cc4ccc5c(c4)OCO5)C4CCCCC4)nn3)nc2c1
REMARK SMILES IDX 11 1 10 2 8 3 9 4 30 5 29 6 7 8 6 9 1 10 2 11 33 12 3 13
REMARK SMILES IDX 32 14 4 15 31 16 5 17 12 18 13 21 14 22 15 23 19 24 16 25
REMARK SMILES IDX 18 26 17 27 20 28 22 29 21 30 23 31 24 32 28 33 25 34 27 35
REMARK SMILES IDX 26 36
REMARK H PARENT 9 7 12 19 12 20
ROOT
ATOM     1   C9  UNL     1      -2.021  -0.621   1.339  1.00  0.00     0.117 C   
ENDROOT
BRANCH   1   2
ATOM     2   C8  UNL     1      -1.159   0.080   0.343  1.00  0.00     0.127 A   
ATOM     3   N2  UNL     1       0.095   0.701  -1.306  1.00  0.00    -0.206 N   
ATOM     4   C7  UNL     1      -0.867  -0.214  -0.968  1.00  0.00     0.046 A   
ATOM     5   N5  UNL     1       0.335   1.545  -0.279  1.00  0.00    -0.076 NA  
ATOM     6   N4  UNL     1      -0.417   1.167   0.742  1.00  0.00    -0.132 NA  
ATOM     7   H7  UNL     1      -1.199  -0.981  -1.655  1.00  0.00     0.083 HD  
BRANCH   3   8
ATOM     8   C6  UNL     1       0.775   0.870  -2.580  1.00  0.00     0.191 C   
BRANCH   8   9
ATOM     9   C5  UNL     1       1.414  -0.406  -3.014  1.00  0.00     0.077 A   
ATOM     10  C1  UNL     1       2.358  -4.455  -4.702  1.00  0.00     0.005 A   
ATOM     11  C2  UNL     1       3.700  -4.085  -4.273  1.00  0.00     0.016 A   
ATOM     12  C25 UNL     1       1.305  -3.636  -4.509  1.00  0.00     0.045 A   
ATOM     13  C3  UNL     1       3.890  -2.892  -3.683  1.00  0.00     0.082 A   
ATOM     14  C24 UNL     1       1.498  -2.373  -3.883  1.00  0.00     0.128 A   
ATOM     15  N1  UNL     1       2.797  -2.046  -3.501  1.00  0.00    -0.266 N   
ATOM     16  N6  UNL     1       0.652  -1.408  -3.586  1.00  0.00    -0.234 NA  
ATOM     17  C4  UNL     1       2.740  -0.788  -2.950  1.00  0.00     0.107 A   
ENDBRANCH   8   9
ENDBRANCH   3   8
ENDBRANCH   1   2
BRANCH   1  18
ATOM     18  N3  UNL     1      -1.398  -0.496   2.716  1.00  0.00     0.249 N   
ATOM     19  H9  UNL     1      -2.119  -0.358   3.431  1.00  0.00     0.199 HD  
ATOM     20  H10 UNL     1      -0.849   0.381   2.690  1.00  0.00     0.199 HD  
BRANCH  18  21
ATOM     21  C10 UNL     1      -0.483  -1.603   3.127  1.00  0.00     0.164 C   
BRANCH  21  22
ATOM     22  C11 UNL     1       0.760  -1.724   2.288  1.00  0.00    -0.002 A   
ATOM     23  C12 UNL     1       0.886  -2.760   1.333  1.00  0.00     0.012 A   
ATOM     24  C16 UNL     1       1.801  -0.789   2.429  1.00  0.00     0.045 A   
ATOM     25  C13 UNL     1       2.026  -2.863   0.525  1.00  0.00     0.037 A   
ATOM     26  C15 UNL     1       2.912  -0.923   1.625  1.00  0.00     0.109 A   
ATOM     27  C14 UNL     1       3.023  -1.929   0.695  1.00  0.00     0.108 A   
ATOM     28  O1  UNL     1       4.000  -0.111   1.642  1.00  0.00    -0.316 OA  
ATOM     29  O2  UNL     1       4.193  -1.874   0.004  1.00  0.00    -0.316 OA  
ATOM     30  C17 UNL     1       4.825  -0.740   0.638  1.00  0.00     0.337 C   
ENDBRANCH  21  22
ENDBRANCH  18  21
ENDBRANCH   1  18
BRANCH   1  31
ATOM     31  C18 UNL     1      -3.481  -0.104   1.403  1.00  0.00     0.043 C   
ATOM     32  C19 UNL     1      -3.612   1.393   1.742  1.00  0.00     0.010 C   
ATOM     33  C23 UNL     1      -4.244  -0.417   0.102  1.00  0.00     0.010 C   
ATOM     34  C20 UNL     1      -5.078   1.824   1.821  1.00  0.00     0.001 C   
ATOM     35  C22 UNL     1      -5.711  -0.003   0.199  1.00  0.00     0.001 C   
ATOM     36  C21 UNL     1      -5.848   1.472   0.553  1.00  0.00     0.000 C   
ENDBRANCH   1  31
TORSDOF 7
