REMARK SMILES COc1cnc(Cn2cc([C@@H]([NH2+]Cc3ccc4c(c3)OCO4)C3CCCCC3)nn2)c(C)c1
REMARK SMILES IDX 8 1 9 2 10 3 29 4 30 5 7 7 6 8 3 9 4 10 33 11 5 12 31 13
REMARK SMILES IDX 32 14 2 15 1 16 11 17 12 18 13 21 14 22 15 23 19 24 16 25
REMARK SMILES IDX 18 26 17 27 20 28 22 29 21 30 23 31 24 32 28 33 25 34 27 35
REMARK SMILES IDX 26 36
REMARK H PARENT 9 6 12 19 12 20
ROOT
ATOM     1   N2  UNL     1       0.025  -2.417   0.857  1.00  0.00    -0.206 N   
ATOM     2   C6  UNL     1       0.517  -1.344   1.555  1.00  0.00     0.046 A   
ATOM     3   C7  UNL     1      -0.324  -0.307   1.214  1.00  0.00     0.127 A   
ATOM     4   N4  UNL     1      -1.277  -0.771   0.344  1.00  0.00    -0.132 NA  
ATOM     5   N5  UNL     1      -1.061  -2.059   0.145  1.00  0.00    -0.076 NA  
ATOM     6   H7  UNL     1       1.380  -1.419   2.202  1.00  0.00     0.083 HD  
ENDROOT
BRANCH   1   7
ATOM     7   C5  UNL     1       0.476  -3.798   0.893  1.00  0.00     0.190 C   
BRANCH   7   8
ATOM     8   C4  UNL     1       1.211  -4.180  -0.367  1.00  0.00     0.063 A   
ATOM     9   C2  UNL     1       2.370  -4.954  -2.768  1.00  0.00     0.093 A   
ATOM     10  C3  UNL     1       1.058  -5.243  -2.439  1.00  0.00     0.144 A   
ATOM     11  C25 UNL     1       3.115  -4.247  -1.829  1.00  0.00     0.040 A   
ATOM     12  N1  UNL     1       0.472  -4.873  -1.274  1.00  0.00    -0.257 NA  
ATOM     13  C23 UNL     1       2.555  -3.857  -0.602  1.00  0.00    -0.025 A   
ATOM     14  C24 UNL     1       3.407  -3.092   0.367  1.00  0.00     0.046 C   
BRANCH   9  15
ATOM     15  O1  UNL     1       3.026  -5.282  -3.917  1.00  0.00    -0.348 OA  
ATOM     16  C1  UNL     1       2.309  -6.079  -4.856  1.00  0.00     0.203 C   
ENDBRANCH   9  15
ENDBRANCH   7   8
ENDBRANCH   1   7
BRANCH   3  17
ATOM     17  C8  UNL     1      -0.324   1.143   1.576  1.00  0.00     0.117 C   
BRANCH  17  18
ATOM     18  N3  UNL     1      -0.900   1.948   0.435  1.00  0.00     0.249 N   
ATOM     19  H9  UNL     1      -1.219   2.872   0.742  1.00  0.00     0.199 HD  
ATOM     20  H10 UNL     1      -1.741   1.442   0.115  1.00  0.00     0.199 HD  
BRANCH  18  21
ATOM     21  C9  UNL     1      -0.012   2.102  -0.750  1.00  0.00     0.164 C   
BRANCH  21  22
ATOM     22  C10 UNL     1      -0.735   2.813  -1.858  1.00  0.00    -0.002 A   
ATOM     23  C11 UNL     1      -1.538   2.079  -2.763  1.00  0.00     0.012 A   
ATOM     24  C15 UNL     1      -0.666   4.212  -1.969  1.00  0.00     0.045 A   
ATOM     25  C12 UNL     1      -2.254   2.726  -3.776  1.00  0.00     0.037 A   
ATOM     26  C14 UNL     1      -1.384   4.818  -2.979  1.00  0.00     0.109 A   
ATOM     27  C13 UNL     1      -2.155   4.098  -3.858  1.00  0.00     0.108 A   
ATOM     28  O2  UNL     1      -1.426   6.154  -3.225  1.00  0.00    -0.316 OA  
ATOM     29  O3  UNL     1      -2.777   4.888  -4.770  1.00  0.00    -0.316 OA  
ATOM     30  C16 UNL     1      -2.294   6.192  -4.381  1.00  0.00     0.337 C   
ENDBRANCH  21  22
ENDBRANCH  18  21
ENDBRANCH  17  18
BRANCH  17  31
ATOM     31  C17 UNL     1      -1.123   1.483   2.862  1.00  0.00     0.043 C   
ATOM     32  C18 UNL     1      -0.457   0.891   4.120  1.00  0.00     0.010 C   
ATOM     33  C22 UNL     1      -2.610   1.077   2.808  1.00  0.00     0.010 C   
ATOM     34  C19 UNL     1      -1.199   1.293   5.393  1.00  0.00     0.001 C   
ATOM     35  C21 UNL     1      -3.349   1.470   4.087  1.00  0.00     0.001 C   
ATOM     36  C20 UNL     1      -2.671   0.902   5.330  1.00  0.00     0.000 C   
ENDBRANCH  17  31
ENDBRANCH   3  17
TORSDOF 8
