REMARK SMILES CC(C)C[C@H]([NH2+]Cc1ccc2c(c1)OCO2)c1cn([C@@H](CO)c2cccs2)nn1
REMARK SMILES IDX 17 1 18 2 19 3 28 4 29 5 5 7 4 8 2 9 1 10 3 11 6 12 7 15
REMARK SMILES IDX 8 16 9 17 13 18 10 19 12 20 11 21 14 22 16 23 15 24 20 25
REMARK SMILES IDX 21 26 22 27 23 29 24 30 27 31 25 32 26 33
REMARK H PARENT 18 6 6 13 6 14 22 28
ROOT
ATOM     1   C14 UNL     1      -0.235   1.129   0.309  1.00  0.00     0.127 A   
ATOM     2   C15 UNL     1      -0.987   1.151   1.460  1.00  0.00     0.046 A   
ATOM     3   N2  UNL     1      -1.754   2.280   1.340  1.00  0.00    -0.202 N   
ATOM     4   N3  UNL     1      -1.538   2.870   0.144  1.00  0.00    -0.075 NA  
ATOM     5   N4  UNL     1      -0.600   2.182  -0.488  1.00  0.00    -0.132 NA  
ATOM     6   H20 UNL     1      -1.038   0.510   2.330  1.00  0.00     0.083 HD  
ENDROOT
BRANCH   1   7
ATOM     7   C5  UNL     1       0.800   0.165  -0.169  1.00  0.00     0.114 C   
BRANCH   7   8
ATOM     8   C4  UNL     1       2.235   0.666   0.084  1.00  0.00     0.064 C   
BRANCH   8   9
ATOM     9   C2  UNL     1       2.600   0.894   1.568  1.00  0.00    -0.012 C   
ATOM     10  C1  UNL     1       4.022   1.454   1.669  1.00  0.00     0.007 C   
ATOM     11  C3  UNL     1       2.491  -0.386   2.397  1.00  0.00     0.007 C   
ENDBRANCH   8   9
ENDBRANCH   7   8
BRANCH   7  12
ATOM     12  N1  UNL     1       0.597  -0.025  -1.652  1.00  0.00     0.249 N   
ATOM     13  H11 UNL     1      -0.409  -0.186  -1.800  1.00  0.00     0.199 HD  
ATOM     14  H12 UNL     1       0.757   0.881  -2.117  1.00  0.00     0.199 HD  
BRANCH  12  15
ATOM     15  C6  UNL     1       1.352  -1.105  -2.325  1.00  0.00     0.164 C   
BRANCH  15  16
ATOM     16  C7  UNL     1       0.829  -1.331  -3.715  1.00  0.00    -0.002 A   
ATOM     17  C8  UNL     1       1.326  -0.571  -4.800  1.00  0.00     0.012 A   
ATOM     18  C12 UNL     1      -0.203  -2.260  -3.936  1.00  0.00     0.045 A   
ATOM     19  C9  UNL     1       0.814  -0.741  -6.091  1.00  0.00     0.037 A   
ATOM     20  C11 UNL     1      -0.685  -2.403  -5.221  1.00  0.00     0.109 A   
ATOM     21  C10 UNL     1      -0.192  -1.666  -6.268  1.00  0.00     0.108 A   
ATOM     22  O1  UNL     1      -1.675  -3.252  -5.603  1.00  0.00    -0.316 OA  
ATOM     23  O2  UNL     1      -0.806  -1.960  -7.443  1.00  0.00    -0.316 OA  
ATOM     24  C13 UNL     1      -1.732  -2.985  -7.022  1.00  0.00     0.337 C   
ENDBRANCH  15  16
ENDBRANCH  12  15
ENDBRANCH   7  12
ENDBRANCH   1   7
BRANCH   3  25
ATOM     25  C16 UNL     1      -2.710   2.862   2.282  1.00  0.00     0.162 C   
BRANCH  25  26
ATOM     26  C17 UNL     1      -4.110   2.248   2.101  1.00  0.00     0.186 C   
BRANCH  26  27
ATOM     27  O3  UNL     1      -4.122   0.827   2.268  1.00  0.00    -0.394 OA  
ATOM     28  H24 UNL     1      -5.052   0.543   2.193  1.00  0.00     0.210 HD  
ENDBRANCH  26  27
ENDBRANCH  25  26
BRANCH  25  29
ATOM     29  C18 UNL     1      -2.178   2.808   3.703  1.00  0.00     0.014 A   
ATOM     30  C19 UNL     1      -2.466   1.930   4.734  1.00  0.00     0.013 A   
ATOM     31  S1  UNL     1      -1.022   3.984   4.206  1.00  0.00    -0.100 S   
ATOM     32  C20 UNL     1      -1.744   2.225   5.926  1.00  0.00     0.008 A   
ATOM     33  C21 UNL     1      -0.924   3.319   5.776  1.00  0.00     0.046 A   
ENDBRANCH  25  29
ENDBRANCH   3  25
TORSDOF 10
