REMARK SMILES CC(C)C[C@H]([NH2+]Cc1ccc2c(c1)OCO2)c1cn([C@H](CO)c2cccs2)nn1
REMARK SMILES IDX 17 1 18 2 19 3 28 4 29 5 5 7 4 8 2 9 1 10 3 11 6 12 7 15
REMARK SMILES IDX 8 16 9 17 13 18 10 19 12 20 11 21 14 22 16 23 15 24 20 25
REMARK SMILES IDX 21 26 22 27 23 29 24 30 27 31 25 32 26 33
REMARK H PARENT 18 6 6 13 6 14 22 28
ROOT
ATOM     1   C14 UNL     1       0.451  -1.302  -0.519  1.00  0.00     0.127 A   
ATOM     2   C15 UNL     1      -0.604  -0.476  -0.209  1.00  0.00     0.046 A   
ATOM     3   N2  UNL     1      -1.588  -1.329   0.214  1.00  0.00    -0.202 N   
ATOM     4   N3  UNL     1      -1.158  -2.608   0.160  1.00  0.00    -0.075 NA  
ATOM     5   N4  UNL     1       0.087  -2.602  -0.288  1.00  0.00    -0.132 NA  
ATOM     6   H20 UNL     1      -0.740   0.597  -0.228  1.00  0.00     0.083 HD  
ENDROOT
BRANCH   1   7
ATOM     7   C5  UNL     1       1.846  -0.979  -0.917  1.00  0.00     0.114 C   
BRANCH   7   8
ATOM     8   C4  UNL     1       2.200  -1.411  -2.355  1.00  0.00     0.064 C   
BRANCH   8   9
ATOM     9   C2  UNL     1       1.533  -0.648  -3.522  1.00  0.00    -0.012 C   
ATOM     10  C1  UNL     1       1.647   0.869  -3.386  1.00  0.00     0.007 C   
ATOM     11  C3  UNL     1       0.084  -1.062  -3.773  1.00  0.00     0.007 C   
ENDBRANCH   8   9
ENDBRANCH   7   8
BRANCH   7  12
ATOM     12  N1  UNL     1       2.818  -1.708  -0.000  1.00  0.00     0.249 N   
ATOM     13  H11 UNL     1       3.778  -1.546  -0.317  1.00  0.00     0.199 HD  
ATOM     14  H12 UNL     1       2.622  -2.712  -0.110  1.00  0.00     0.199 HD  
BRANCH  12  15
ATOM     15  C6  UNL     1       2.725  -1.402   1.461  1.00  0.00     0.164 C   
BRANCH  15  16
ATOM     16  C7  UNL     1       2.912   0.054   1.788  1.00  0.00    -0.002 A   
ATOM     17  C8  UNL     1       1.828   0.810   2.298  1.00  0.00     0.012 A   
ATOM     18  C12 UNL     1       4.150   0.682   1.571  1.00  0.00     0.045 A   
ATOM     19  C9  UNL     1       1.967   2.173   2.576  1.00  0.00     0.037 A   
ATOM     20  C11 UNL     1       4.253   2.028   1.855  1.00  0.00     0.109 A   
ATOM     21  C10 UNL     1       3.193   2.753   2.342  1.00  0.00     0.108 A   
ATOM     22  O1  UNL     1       5.369   2.786   1.692  1.00  0.00    -0.316 OA  
ATOM     23  O2  UNL     1       3.509   4.057   2.549  1.00  0.00    -0.316 OA  
ATOM     24  C13 UNL     1       4.900   4.069   2.165  1.00  0.00     0.337 C   
ENDBRANCH  15  16
ENDBRANCH  12  15
ENDBRANCH   7  12
ENDBRANCH   1   7
BRANCH   3  25
ATOM     25  C16 UNL     1      -2.909  -1.014   0.755  1.00  0.00     0.162 C   
BRANCH  25  26
ATOM     26  C17 UNL     1      -3.897  -0.623  -0.357  1.00  0.00     0.186 C   
BRANCH  26  27
ATOM     27  O3  UNL     1      -3.469   0.512  -1.114  1.00  0.00    -0.394 OA  
ATOM     28  H24 UNL     1      -4.168   0.697  -1.769  1.00  0.00     0.210 HD  
ENDBRANCH  26  27
ENDBRANCH  25  26
BRANCH  25  29
ATOM     29  C18 UNL     1      -2.787  -0.002   1.882  1.00  0.00     0.014 A   
ATOM     30  C19 UNL     1      -2.948   1.372   1.870  1.00  0.00     0.013 A   
ATOM     31  S1  UNL     1      -2.366  -0.554   3.459  1.00  0.00    -0.100 S   
ATOM     32  C20 UNL     1      -2.731   1.963   3.148  1.00  0.00     0.008 A   
ATOM     33  C21 UNL     1      -2.410   1.026   4.103  1.00  0.00     0.046 A   
ENDBRANCH  25  29
ENDBRANCH   3  25
TORSDOF 10
