REMARK SMILES CN(C)c1ccc(-n2cc([C@@H]([NH2+]Cc3ccc4c(c3)OCO4)C3CCCCC3)nn2)cc1
REMARK SMILES IDX 8 1 9 2 10 3 29 4 30 5 7 6 4 7 5 8 32 9 6 10 31 11 2 12 1 13
REMARK SMILES IDX 3 14 11 15 12 16 13 19 14 20 15 21 19 22 16 23 18 24 17 25
REMARK SMILES IDX 20 26 22 27 21 28 23 29 24 30 28 31 25 32 27 33 26 34
REMARK H PARENT 12 17 12 18
ROOT
ATOM     1   N2  UNL     1      -1.408   1.527  -0.177  1.00  0.00    -0.181 N   
ATOM     2   C7  UNL     1      -0.269   1.479   0.605  1.00  0.00     0.135 A   
ATOM     3   C8  UNL     1       0.502   0.478   0.059  1.00  0.00     0.127 A   
ATOM     4   N4  UNL     1      -0.170  -0.076  -0.994  1.00  0.00    -0.131 NA  
ATOM     5   N5  UNL     1      -1.325   0.554  -1.122  1.00  0.00    -0.071 NA  
ENDROOT
BRANCH   1   6
ATOM     6   C6  UNL     1      -2.527   2.388  -0.077  1.00  0.00     0.058 A   
ATOM     7   C3  UNL     1      -4.801   4.098   0.095  1.00  0.00     0.028 A   
ATOM     8   C4  UNL     1      -3.711   4.221   0.974  1.00  0.00     0.025 A   
ATOM     9   C25 UNL     1      -4.702   3.103  -0.889  1.00  0.00     0.025 A   
ATOM     10  C5  UNL     1      -2.589   3.383   0.901  1.00  0.00     0.028 A   
ATOM     11  C24 UNL     1      -3.589   2.253  -0.975  1.00  0.00     0.028 A   
BRANCH   7  12
ATOM     12  N1  UNL     1      -5.890   4.974   0.194  1.00  0.00    -0.337 N   
ATOM     13  C1  UNL     1      -6.877   4.995  -0.888  1.00  0.00     0.129 C   
ATOM     14  C2  UNL     1      -6.462   5.117   1.537  1.00  0.00     0.129 C   
ENDBRANCH   7  12
ENDBRANCH   1   6
BRANCH   3  15
ATOM     15  C9  UNL     1       1.832  -0.079   0.456  1.00  0.00     0.117 C   
BRANCH  15  16
ATOM     16  N3  UNL     1       1.919  -1.536   0.069  1.00  0.00     0.249 N   
ATOM     17  H11 UNL     1       2.891  -1.859   0.034  1.00  0.00     0.199 HD  
ATOM     18  H12 UNL     1       1.555  -1.611  -0.893  1.00  0.00     0.199 HD  
BRANCH  16  19
ATOM     19  C10 UNL     1       1.126  -2.476   0.909  1.00  0.00     0.164 C   
BRANCH  19  20
ATOM     20  C11 UNL     1       1.286  -3.884   0.408  1.00  0.00    -0.002 A   
ATOM     21  C12 UNL     1       2.240  -4.750   0.992  1.00  0.00     0.012 A   
ATOM     22  C16 UNL     1       0.524  -4.329  -0.686  1.00  0.00     0.045 A   
ATOM     23  C13 UNL     1       2.430  -6.045   0.499  1.00  0.00     0.037 A   
ATOM     24  C15 UNL     1       0.738  -5.610  -1.149  1.00  0.00     0.109 A   
ATOM     25  C14 UNL     1       1.665  -6.444  -0.574  1.00  0.00     0.108 A   
ATOM     26  O1  UNL     1       0.095  -6.191  -2.196  1.00  0.00    -0.316 OA  
ATOM     27  O2  UNL     1       1.719  -7.657  -1.183  1.00  0.00    -0.316 OA  
ATOM     28  C17 UNL     1       0.712  -7.499  -2.205  1.00  0.00     0.337 C   
ENDBRANCH  19  20
ENDBRANCH  16  19
ENDBRANCH  15  16
BRANCH  15  29
ATOM     29  C18 UNL     1       3.047   0.659  -0.167  1.00  0.00     0.043 C   
ATOM     30  C19 UNL     1       3.174   2.102   0.362  1.00  0.00     0.010 C   
ATOM     31  C23 UNL     1       3.067   0.657  -1.709  1.00  0.00     0.010 C   
ATOM     32  C20 UNL     1       4.420   2.793  -0.187  1.00  0.00     0.001 C   
ATOM     33  C22 UNL     1       4.310   1.359  -2.257  1.00  0.00     0.001 C   
ATOM     34  C21 UNL     1       4.444   2.776  -1.713  1.00  0.00     0.000 C   
ENDBRANCH  15  29
ENDBRANCH   3  15
TORSDOF 7
