REMARK SMILES Cc1ccc([C@@H](O)Cn2cc([C@@H]([NH2+]Cc3ccc4c(c3)OCO4)C3CCCC3)nn2)cc1F
REMARK SMILES IDX 9 1 10 2 11 3 29 4 30 5 8 7 6 8 5 9 2 10 3 11 32 12 4 13
REMARK SMILES IDX 31 14 1 15 33 16 7 17 12 19 13 20 14 23 15 24 16 25 20 26
REMARK SMILES IDX 17 27 19 28 18 29 21 30 23 31 22 32 24 33 25 34 28 35 26 36
REMARK SMILES IDX 27 37
REMARK H PARENT 10 6 7 18 13 21 13 22
ROOT
ATOM     1   N1  UNL     1       1.414   0.249   2.855  1.00  0.00    -0.209 N   
ATOM     2   C8  UNL     1       1.468   0.298   1.490  1.00  0.00     0.045 A   
ATOM     3   C9  UNL     1       0.355   1.031   1.142  1.00  0.00     0.127 A   
ATOM     4   N3  UNL     1      -0.310   1.409   2.280  1.00  0.00    -0.132 NA  
ATOM     5   N4  UNL     1       0.349   0.927   3.321  1.00  0.00    -0.076 NA  
ATOM     6   H10 UNL     1       2.239  -0.203   0.920  1.00  0.00     0.083 HD  
ENDROOT
BRANCH   1   7
ATOM     7   C7  UNL     1       2.257  -0.509   3.752  1.00  0.00     0.170 C   
BRANCH   7   8
ATOM     8   C6  UNL     1       1.527  -1.693   4.399  1.00  0.00     0.164 C   
BRANCH   8   9
ATOM     9   C5  UNL     1       0.934  -2.646   3.377  1.00  0.00    -0.015 A   
ATOM     10  C2  UNL     1      -0.181  -4.298   1.373  1.00  0.00    -0.015 A   
ATOM     11  C3  UNL     1       1.173  -4.404   1.709  1.00  0.00     0.007 A   
ATOM     12  C25 UNL     1      -0.968  -3.376   2.063  1.00  0.00     0.126 A   
ATOM     13  C4  UNL     1       1.729  -3.578   2.692  1.00  0.00     0.007 A   
ATOM     14  C24 UNL     1      -0.428  -2.561   3.055  1.00  0.00     0.046 A   
ATOM     15  C1  UNL     1      -0.783  -5.201   0.339  1.00  0.00     0.047 C   
ATOM     16  F1  UNL     1      -2.262  -3.224   1.745  1.00  0.00    -0.207 F   
ENDBRANCH   8   9
BRANCH   8  17
ATOM     17  O1  UNL     1       2.448  -2.399   5.234  1.00  0.00    -0.387 OA  
ATOM     18  H7  UNL     1       2.013  -3.224   5.517  1.00  0.00     0.211 HD  
ENDBRANCH   8  17
ENDBRANCH   7   8
ENDBRANCH   1   7
BRANCH   3  19
ATOM     19  C10 UNL     1      -0.216   1.378  -0.195  1.00  0.00     0.117 C   
BRANCH  19  20
ATOM     20  N2  UNL     1      -1.724   1.371  -0.121  1.00  0.00     0.249 N   
ATOM     21  H12 UNL     1      -2.136   1.908  -0.887  1.00  0.00     0.199 HD  
ATOM     22  H13 UNL     1      -1.967   1.859   0.754  1.00  0.00     0.199 HD  
BRANCH  20  23
ATOM     23  C11 UNL     1      -2.370   0.025  -0.066  1.00  0.00     0.164 C   
BRANCH  23  24
ATOM     24  C12 UNL     1      -2.313  -0.693  -1.386  1.00  0.00    -0.002 A   
ATOM     25  C13 UNL     1      -3.158  -0.300  -2.453  1.00  0.00     0.012 A   
ATOM     26  C17 UNL     1      -1.397  -1.740  -1.581  1.00  0.00     0.045 A   
ATOM     27  C14 UNL     1      -3.089  -0.938  -3.696  1.00  0.00     0.037 A   
ATOM     28  C16 UNL     1      -1.355  -2.349  -2.817  1.00  0.00     0.109 A   
ATOM     29  C15 UNL     1      -2.176  -1.958  -3.846  1.00  0.00     0.108 A   
ATOM     30  O2  UNL     1      -0.528  -3.368  -3.168  1.00  0.00    -0.316 OA  
ATOM     31  O3  UNL     1      -1.971  -2.683  -4.976  1.00  0.00    -0.316 OA  
ATOM     32  C18 UNL     1      -0.946  -3.599  -4.534  1.00  0.00     0.337 C   
ENDBRANCH  23  24
ENDBRANCH  20  23
ENDBRANCH  19  20
BRANCH  19  33
ATOM     33  C19 UNL     1       0.300   2.739  -0.700  1.00  0.00     0.043 C   
ATOM     34  C20 UNL     1      -0.008   3.023  -2.177  1.00  0.00     0.010 C   
ATOM     35  C23 UNL     1      -0.234   3.983   0.013  1.00  0.00     0.010 C   
ATOM     36  C21 UNL     1       0.014   4.547  -2.320  1.00  0.00     0.001 C   
ATOM     37  C22 UNL     1       0.200   5.109  -0.913  1.00  0.00     0.001 C   
ENDBRANCH  19  33
ENDBRANCH   3  19
TORSDOF 9
