REMARK SMILES Cc1ccc([C@H](O)Cn2cc([C@@H]([NH2+]Cc3ccc4c(c3)OCO4)C3CCCC3)nn2)cc1F
REMARK SMILES IDX 9 1 10 2 11 3 29 4 30 5 8 7 6 8 5 9 2 10 3 11 32 12 4 13
REMARK SMILES IDX 31 14 1 15 33 16 7 17 12 19 13 20 14 23 15 24 16 25 20 26
REMARK SMILES IDX 17 27 19 28 18 29 21 30 23 31 22 32 24 33 25 34 28 35 26 36
REMARK SMILES IDX 27 37
REMARK H PARENT 10 6 7 18 13 21 13 22
ROOT
ATOM     1   N1  UNL     1       0.012   1.882   1.975  1.00  0.00    -0.209 N   
ATOM     2   C8  UNL     1      -0.302   0.570   1.747  1.00  0.00     0.045 A   
ATOM     3   C9  UNL     1      -0.797   0.567   0.462  1.00  0.00     0.127 A   
ATOM     4   N3  UNL     1      -0.804   1.854  -0.018  1.00  0.00    -0.132 NA  
ATOM     5   N4  UNL     1      -0.337   2.651   0.927  1.00  0.00    -0.076 NA  
ATOM     6   H10 UNL     1      -0.110  -0.208   2.474  1.00  0.00     0.083 HD  
ENDROOT
BRANCH   1   7
ATOM     7   C7  UNL     1       0.692   2.455   3.115  1.00  0.00     0.170 C   
BRANCH   7   8
ATOM     8   C6  UNL     1       2.119   2.916   2.784  1.00  0.00     0.164 C   
BRANCH   8   9
ATOM     9   C5  UNL     1       3.008   1.774   2.334  1.00  0.00    -0.015 A   
ATOM     10  C2  UNL     1       4.578  -0.408   1.459  1.00  0.00    -0.015 A   
ATOM     11  C3  UNL     1       4.351  -0.201   2.824  1.00  0.00     0.007 A   
ATOM     12  C25 UNL     1       4.008   0.481   0.545  1.00  0.00     0.126 A   
ATOM     13  C4  UNL     1       3.570   0.876   3.256  1.00  0.00     0.007 A   
ATOM     14  C24 UNL     1       3.240   1.564   0.967  1.00  0.00     0.046 A   
ATOM     15  C1  UNL     1       5.392  -1.569   0.973  1.00  0.00     0.047 C   
ATOM     16  F1  UNL     1       4.171   0.282  -0.773  1.00  0.00    -0.207 F   
ENDBRANCH   8   9
BRANCH   8  17
ATOM     17  O1  UNL     1       2.684   3.525   3.945  1.00  0.00    -0.387 OA  
ATOM     18  H7  UNL     1       3.622   3.704   3.752  1.00  0.00     0.211 HD  
ENDBRANCH   8  17
ENDBRANCH   7   8
ENDBRANCH   1   7
BRANCH   3  19
ATOM     19  C10 UNL     1      -1.301  -0.541  -0.411  1.00  0.00     0.117 C   
BRANCH  19  20
ATOM     20  N2  UNL     1      -2.283   0.023  -1.407  1.00  0.00     0.249 N   
ATOM     21  H12 UNL     1      -1.867   0.898  -1.762  1.00  0.00     0.199 HD  
ATOM     22  H13 UNL     1      -2.410  -0.582  -2.222  1.00  0.00     0.199 HD  
BRANCH  20  23
ATOM     23  C11 UNL     1      -3.622   0.367  -0.852  1.00  0.00     0.164 C   
BRANCH  23  24
ATOM     24  C12 UNL     1      -4.486   0.976  -1.919  1.00  0.00    -0.002 A   
ATOM     25  C13 UNL     1      -5.367   0.169  -2.677  1.00  0.00     0.012 A   
ATOM     26  C17 UNL     1      -4.373   2.346  -2.213  1.00  0.00     0.045 A   
ATOM     27  C14 UNL     1      -6.131   0.720  -3.713  1.00  0.00     0.037 A   
ATOM     28  C16 UNL     1      -5.138   2.857  -3.240  1.00  0.00     0.109 A   
ATOM     29  C15 UNL     1      -5.992   2.067  -3.970  1.00  0.00     0.108 A   
ATOM     30  O2  UNL     1      -5.141   4.149  -3.658  1.00  0.00    -0.316 OA  
ATOM     31  O3  UNL     1      -6.644   2.764  -4.939  1.00  0.00    -0.316 OA  
ATOM     32  C18 UNL     1      -6.108   4.090  -4.732  1.00  0.00     0.337 C   
ENDBRANCH  23  24
ENDBRANCH  20  23
ENDBRANCH  19  20
BRANCH  19  33
ATOM     33  C19 UNL     1      -0.156  -1.234  -1.180  1.00  0.00     0.043 C   
ATOM     34  C20 UNL     1       0.822  -1.983  -0.258  1.00  0.00     0.010 C   
ATOM     35  C23 UNL     1      -0.602  -2.349  -2.131  1.00  0.00     0.010 C   
ATOM     36  C21 UNL     1       1.478  -3.060  -1.124  1.00  0.00     0.001 C   
ATOM     37  C22 UNL     1       0.690  -3.098  -2.426  1.00  0.00     0.001 C   
ENDBRANCH  19  33
ENDBRANCH   3  19
TORSDOF 9
