REMARK SMILES CC(C)C[C@H]([NH2+]Cc1ccc2c(c1)OCO2)c1cn(Cc2cc(N)cc(CN)c2)nn1
REMARK SMILES IDX 17 1 18 2 19 3 30 4 31 5 5 7 4 8 2 9 1 10 3 11 6 12 7 15
REMARK SMILES IDX 8 16 9 17 13 18 10 19 12 20 11 21 14 22 16 23 15 24 20 25
REMARK SMILES IDX 21 26 22 27 29 28 23 29 26 30 25 31 24 32 27 35 28 36
REMARK H PARENT 18 6 6 13 6 14 24 33 24 34 28 37 28 38
ROOT
ATOM     1   C14 UNL     1      -0.377  -0.004  -2.276  1.00  0.00     0.127 A   
ATOM     2   C15 UNL     1      -0.828   1.266  -2.553  1.00  0.00     0.046 A   
ATOM     3   N2  UNL     1      -2.189   1.144  -2.554  1.00  0.00    -0.208 N   
ATOM     4   N5  UNL     1      -2.552  -0.134  -2.327  1.00  0.00    -0.076 NA  
ATOM     5   N6  UNL     1      -1.450  -0.848  -2.167  1.00  0.00    -0.132 NA  
ATOM     6   H20 UNL     1      -0.338   2.221  -2.701  1.00  0.00     0.083 HD  
ENDROOT
BRANCH   1   7
ATOM     7   C5  UNL     1       1.010  -0.496  -2.027  1.00  0.00     0.114 C   
BRANCH   7   8
ATOM     8   C4  UNL     1       1.368  -1.719  -2.894  1.00  0.00     0.064 C   
BRANCH   8   9
ATOM     9   C2  UNL     1       2.808  -2.261  -2.756  1.00  0.00    -0.012 C   
ATOM     10  C1  UNL     1       3.862  -1.205  -3.096  1.00  0.00     0.007 C   
ATOM     11  C3  UNL     1       2.987  -3.478  -3.669  1.00  0.00     0.007 C   
ENDBRANCH   8   9
ENDBRANCH   7   8
BRANCH   7  12
ATOM     12  N1  UNL     1       1.264  -0.753  -0.566  1.00  0.00     0.249 N   
ATOM     13  H11 UNL     1       1.148   0.140  -0.067  1.00  0.00     0.199 HD  
ATOM     14  H12 UNL     1       2.242  -1.024  -0.420  1.00  0.00     0.199 HD  
BRANCH  12  15
ATOM     15  C6  UNL     1       0.380  -1.735   0.132  1.00  0.00     0.164 C   
BRANCH  15  16
ATOM     16  C7  UNL     1       0.936  -2.036   1.500  1.00  0.00    -0.002 A   
ATOM     17  C8  UNL     1       1.730  -3.192   1.712  1.00  0.00     0.012 A   
ATOM     18  C12 UNL     1       0.729  -1.131   2.557  1.00  0.00     0.045 A   
ATOM     19  C9  UNL     1       2.299  -3.454   2.964  1.00  0.00     0.037 A   
ATOM     20  C11 UNL     1       1.318  -1.411   3.774  1.00  0.00     0.109 A   
ATOM     21  C10 UNL     1       2.076  -2.542   3.974  1.00  0.00     0.108 A   
ATOM     22  O1  UNL     1       1.243  -0.633   4.886  1.00  0.00    -0.316 OA  
ATOM     23  O2  UNL     1       2.554  -2.630   5.243  1.00  0.00    -0.316 OA  
ATOM     24  C13 UNL     1       2.032  -1.411   5.818  1.00  0.00     0.337 C   
ENDBRANCH  15  16
ENDBRANCH  12  15
ENDBRANCH   7  12
ENDBRANCH   1   7
BRANCH   3  25
ATOM     25  C16 UNL     1      -3.183   2.209  -2.575  1.00  0.00     0.169 C   
BRANCH  25  26
ATOM     26  C17 UNL     1      -2.862   3.244  -1.521  1.00  0.00    -0.026 A   
ATOM     27  C18 UNL     1      -2.482   4.544  -1.890  1.00  0.00     0.028 A   
ATOM     28  C23 UNL     1      -2.853   2.889  -0.161  1.00  0.00     0.010 A   
ATOM     29  C19 UNL     1      -2.111   5.486  -0.926  1.00  0.00     0.024 A   
ATOM     30  C21 UNL     1      -2.419   3.796   0.810  1.00  0.00    -0.032 A   
ATOM     31  C20 UNL     1      -2.026   5.084   0.409  1.00  0.00     0.028 A   
BRANCH  29  32
ATOM     32  N3  UNL     1      -1.606   6.729  -1.319  1.00  0.00    -0.358 N   
ATOM     33  H24 UNL     1      -2.002   7.078  -2.188  1.00  0.00     0.143 HD  
ATOM     34  H25 UNL     1      -1.648   7.436  -0.588  1.00  0.00     0.143 HD  
ENDBRANCH  29  32
BRANCH  30  35
ATOM     35  C22 UNL     1      -2.327   3.373   2.252  1.00  0.00     0.113 C   
BRANCH  35  36
ATOM     36  N4  UNL     1      -1.060   2.681   2.525  1.00  0.00    -0.327 NA  
ATOM     37  H29 UNL     1      -1.050   2.477   3.532  1.00  0.00     0.119 HD  
ATOM     38  H30 UNL     1      -0.303   3.353   2.385  1.00  0.00     0.119 HD  
ENDBRANCH  35  36
ENDBRANCH  30  35
ENDBRANCH  25  26
ENDBRANCH   3  25
TORSDOF 11
