REMARK SMILES Oc1ccc(O)c(Cn2cc([C@@H]([NH2+]Cc3ccc4c(c3)OCO4)C3CCCCC3)nn2)c1
REMARK SMILES IDX 9 1 10 2 11 3 30 4 31 5 8 7 7 8 2 9 3 10 32 11 4 12 5 13
REMARK SMILES IDX 1 14 6 16 12 18 13 19 14 22 15 23 16 24 20 25 17 26 19 27
REMARK SMILES IDX 18 28 21 29 23 30 22 31 24 32 25 33 29 34 26 35 28 36 27 37
REMARK H PARENT 10 6 1 15 6 17 13 20 13 21
ROOT
ATOM     1   N1  UNL     1      -1.270   2.890  -1.595  1.00  0.00    -0.208 N   
ATOM     2   C7  UNL     1      -0.275   2.272  -0.885  1.00  0.00     0.046 A   
ATOM     3   C8  UNL     1      -0.920   1.245  -0.231  1.00  0.00     0.127 A   
ATOM     4   N3  UNL     1      -2.263   1.316  -0.504  1.00  0.00    -0.132 NA  
ATOM     5   N4  UNL     1      -2.466   2.329  -1.327  1.00  0.00    -0.076 NA  
ATOM     6   H7  UNL     1       0.755   2.598  -0.942  1.00  0.00     0.083 HD  
ENDROOT
BRANCH   1   7
ATOM     7   C6  UNL     1      -1.168   4.029  -2.491  1.00  0.00     0.172 C   
BRANCH   7   8
ATOM     8   C5  UNL     1      -0.535   3.634  -3.800  1.00  0.00     0.004 A   
ATOM     9   C1  UNL     1      -0.732   2.638  -6.003  1.00  0.00     0.072 A   
ATOM     10  C2  UNL     1       0.611   2.887  -6.260  1.00  0.00     0.036 A   
ATOM     11  C24 UNL     1      -1.307   3.002  -4.788  1.00  0.00     0.041 A   
ATOM     12  C3  UNL     1       1.393   3.503  -5.282  1.00  0.00     0.036 A   
ATOM     13  C4  UNL     1       0.819   3.866  -4.061  1.00  0.00     0.076 A   
BRANCH   9  14
ATOM     14  O1  UNL     1      -1.530   2.029  -6.923  1.00  0.00    -0.361 OA  
ATOM     15  H1  UNL     1      -1.030   1.891  -7.745  1.00  0.00     0.218 HD  
ENDBRANCH   9  14
BRANCH  13  16
ATOM     16  O2  UNL     1       1.583   4.455  -3.093  1.00  0.00    -0.361 OA  
ATOM     17  H4  UNL     1       2.440   4.700  -3.482  1.00  0.00     0.218 HD  
ENDBRANCH  13  16
ENDBRANCH   7   8
ENDBRANCH   1   7
BRANCH   3  18
ATOM     18  C9  UNL     1      -0.430   0.185   0.709  1.00  0.00     0.117 C   
BRANCH  18  19
ATOM     19  N2  UNL     1      -1.624  -0.330   1.494  1.00  0.00     0.249 N   
ATOM     20  H9  UNL     1      -2.044  -1.127   1.006  1.00  0.00     0.199 HD  
ATOM     21  H10 UNL     1      -2.347   0.404   1.410  1.00  0.00     0.199 HD  
BRANCH  19  22
ATOM     22  C10 UNL     1      -1.434  -0.629   2.936  1.00  0.00     0.164 C   
BRANCH  22  23
ATOM     23  C11 UNL     1      -0.703  -1.918   3.182  1.00  0.00    -0.002 A   
ATOM     24  C12 UNL     1       0.592  -1.910   3.755  1.00  0.00     0.012 A   
ATOM     25  C16 UNL     1      -1.288  -3.145   2.813  1.00  0.00     0.045 A   
ATOM     26  C13 UNL     1       1.303  -3.102   3.941  1.00  0.00     0.037 A   
ATOM     27  C15 UNL     1      -0.556  -4.299   3.001  1.00  0.00     0.109 A   
ATOM     28  C14 UNL     1       0.704  -4.279   3.547  1.00  0.00     0.108 A   
ATOM     29  O3  UNL     1      -0.963  -5.555   2.674  1.00  0.00    -0.316 OA  
ATOM     30  O4  UNL     1       1.248  -5.521   3.639  1.00  0.00    -0.316 OA  
ATOM     31  C17 UNL     1       0.189  -6.331   3.084  1.00  0.00     0.337 C   
ENDBRANCH  22  23
ENDBRANCH  19  22
ENDBRANCH  18  19
BRANCH  18  32
ATOM     32  C18 UNL     1       0.304  -0.994   0.017  1.00  0.00     0.043 C   
ATOM     33  C19 UNL     1       1.697  -0.574  -0.495  1.00  0.00     0.010 C   
ATOM     34  C23 UNL     1      -0.493  -1.667  -1.120  1.00  0.00     0.010 C   
ATOM     35  C20 UNL     1       2.460  -1.764  -1.075  1.00  0.00     0.001 C   
ATOM     36  C22 UNL     1       0.272  -2.851  -1.714  1.00  0.00     0.001 C   
ATOM     37  C21 UNL     1       1.667  -2.448  -2.185  1.00  0.00     0.000 C   
ENDBRANCH  18  32
ENDBRANCH   3  18
TORSDOF 9
