REMARK SMILES CC(C)C[C@H]([NH2+]Cc1ccc2c(c1)OCO2)c1cn(Cc2ncoc2C(F)F)nn1
REMARK SMILES IDX 17 1 18 2 19 3 29 4 30 5 5 7 4 8 2 9 1 10 3 11 6 12 7 15
REMARK SMILES IDX 8 16 9 17 13 18 10 19 12 20 11 21 14 22 16 23 15 24 20 25
REMARK SMILES IDX 21 26 22 27 25 28 23 29 24 30 26 31 27 32 28 33
REMARK H PARENT 18 6 6 13 6 14
ROOT
ATOM     1   C14 UNL     1       0.859  -0.376   1.010  1.00  0.00     0.127 A   
ATOM     2   C15 UNL     1       1.510   0.785   0.658  1.00  0.00     0.046 A   
ATOM     3   N2  UNL     1       2.683   0.734   1.363  1.00  0.00    -0.206 N   
ATOM     4   N4  UNL     1       2.776  -0.421   2.051  1.00  0.00    -0.076 NA  
ATOM     5   N5  UNL     1       1.656  -1.098   1.862  1.00  0.00    -0.132 NA  
ATOM     6   H20 UNL     1       1.254   1.626   0.028  1.00  0.00     0.083 HD  
ENDROOT
BRANCH   1   7
ATOM     7   C5  UNL     1      -0.478  -0.917   0.615  1.00  0.00     0.114 C   
BRANCH   7   8
ATOM     8   C4  UNL     1      -1.589  -0.330   1.510  1.00  0.00     0.064 C   
BRANCH   8   9
ATOM     9   C2  UNL     1      -3.040  -0.709   1.138  1.00  0.00    -0.012 C   
ATOM     10  C1  UNL     1      -3.406  -0.299  -0.289  1.00  0.00     0.007 C   
ATOM     11  C3  UNL     1      -4.009  -0.052   2.127  1.00  0.00     0.007 C   
ENDBRANCH   8   9
ENDBRANCH   7   8
BRANCH   7  12
ATOM     12  N1  UNL     1      -0.486  -2.422   0.747  1.00  0.00     0.249 N   
ATOM     13  H11 UNL     1      -1.440  -2.787   0.780  1.00  0.00     0.199 HD  
ATOM     14  H12 UNL     1      -0.051  -2.628   1.658  1.00  0.00     0.199 HD  
BRANCH  12  15
ATOM     15  C6  UNL     1       0.279  -3.175  -0.291  1.00  0.00     0.164 C   
BRANCH  15  16
ATOM     16  C7  UNL     1      -0.385  -3.133  -1.639  1.00  0.00    -0.002 A   
ATOM     17  C8  UNL     1       0.169  -2.358  -2.686  1.00  0.00     0.012 A   
ATOM     18  C12 UNL     1      -1.581  -3.838  -1.860  1.00  0.00     0.045 A   
ATOM     19  C9  UNL     1      -0.461  -2.276  -3.932  1.00  0.00     0.037 A   
ATOM     20  C11 UNL     1      -2.177  -3.734  -3.100  1.00  0.00     0.109 A   
ATOM     21  C10 UNL     1      -1.635  -2.975  -4.106  1.00  0.00     0.108 A   
ATOM     22  O1  UNL     1      -3.335  -4.340  -3.472  1.00  0.00    -0.316 OA  
ATOM     23  O2  UNL     1      -2.381  -3.008  -5.240  1.00  0.00    -0.316 OA  
ATOM     24  C13 UNL     1      -3.444  -3.901  -4.846  1.00  0.00     0.337 C   
ENDBRANCH  15  16
ENDBRANCH  12  15
ENDBRANCH   7  12
ENDBRANCH   1   7
BRANCH   3  25
ATOM     25  C16 UNL     1       3.762   1.706   1.392  1.00  0.00     0.192 C   
BRANCH  25  26
ATOM     26  C17 UNL     1       3.322   2.941   2.089  1.00  0.00     0.095 A   
ATOM     27  N3  UNL     1       2.680   3.957   1.409  1.00  0.00    -0.232 NA  
ATOM     28  C19 UNL     1       3.452   3.292   3.418  1.00  0.00     0.150 A   
ATOM     29  C18 UNL     1       2.467   4.869   2.331  1.00  0.00     0.247 A   
ATOM     30  O3  UNL     1       2.900   4.535   3.578  1.00  0.00    -0.295 OA  
BRANCH  28  31
ATOM     31  C20 UNL     1       4.022   2.626   4.605  1.00  0.00     0.398 C   
ATOM     32  F1  UNL     1       3.159   1.691   5.083  1.00  0.00    -0.203 F   
ATOM     33  F2  UNL     1       5.156   1.952   4.269  1.00  0.00    -0.203 F   
ENDBRANCH  28  31
ENDBRANCH  25  26
ENDBRANCH   3  25
TORSDOF 9
