REMARK SMILES Cc1ccsc1[C@@H](O)Cn1cc([C@@H]([NH2+]Cc2ccc3c(c2)OCO3)C(C)C)nn1
REMARK SMILES IDX 10 1 11 2 12 3 28 4 29 5 9 7 7 8 6 9 2 10 3 11 4 12 5 13
REMARK SMILES IDX 1 14 8 15 13 17 14 18 15 21 16 22 17 23 21 24 18 25 20 26
REMARK SMILES IDX 19 27 22 28 24 29 23 30 25 31 26 32 27 33
REMARK H PARENT 11 6 8 16 14 19 14 20
ROOT
ATOM     1   N1  UNL     1      -0.678  -1.490   1.193  1.00  0.00    -0.209 N   
ATOM     2   C8  UNL     1      -0.032  -1.133   0.043  1.00  0.00     0.045 A   
ATOM     3   C9  UNL     1       0.883  -0.191   0.454  1.00  0.00     0.127 A   
ATOM     4   N3  UNL     1       0.795  -0.043   1.815  1.00  0.00    -0.132 NA  
ATOM     5   N4  UNL     1      -0.154  -0.851   2.255  1.00  0.00    -0.076 NA  
ATOM     6   H10 UNL     1      -0.308  -1.534  -0.922  1.00  0.00     0.083 HD  
ENDROOT
BRANCH   1   7
ATOM     7   C7  UNL     1      -1.754  -2.442   1.365  1.00  0.00     0.171 C   
BRANCH   7   8
ATOM     8   C6  UNL     1      -3.071  -2.046   0.692  1.00  0.00     0.171 C   
BRANCH   8   9
ATOM     9   C5  UNL     1      -3.602  -0.689   1.102  1.00  0.00     0.022 A   
ATOM     10  C2  UNL     1      -4.367  -0.381   2.222  1.00  0.00    -0.038 A   
ATOM     11  C3  UNL     1      -4.687   1.016   2.267  1.00  0.00     0.011 A   
ATOM     12  C4  UNL     1      -4.178   1.716   1.200  1.00  0.00     0.046 A   
ATOM     13  S1  UNL     1      -3.293   0.711   0.149  1.00  0.00    -0.099 S   
ATOM     14  C1  UNL     1      -4.809  -1.353   3.271  1.00  0.00     0.045 C   
ENDBRANCH   8   9
BRANCH   8  15
ATOM     15  O1  UNL     1      -2.941  -2.099  -0.732  1.00  0.00    -0.386 OA  
ATOM     16  H7  UNL     1      -3.797  -1.807  -1.097  1.00  0.00     0.211 HD  
ENDBRANCH   8  15
ENDBRANCH   7   8
ENDBRANCH   1   7
BRANCH   3  17
ATOM     17  C10 UNL     1       1.819   0.678  -0.318  1.00  0.00     0.117 C   
BRANCH  17  18
ATOM     18  N2  UNL     1       1.963   2.012   0.387  1.00  0.00     0.249 N   
ATOM     19  H12 UNL     1       2.807   2.499   0.072  1.00  0.00     0.199 HD  
ATOM     20  H13 UNL     1       2.088   1.788   1.385  1.00  0.00     0.199 HD  
BRANCH  18  21
ATOM     21  C11 UNL     1       0.790   2.931   0.290  1.00  0.00     0.164 C   
BRANCH  21  22
ATOM     22  C12 UNL     1       0.674   3.572  -1.065  1.00  0.00    -0.002 A   
ATOM     23  C13 UNL     1       1.550   4.621  -1.438  1.00  0.00     0.012 A   
ATOM     24  C17 UNL     1      -0.281   3.110  -1.986  1.00  0.00     0.045 A   
ATOM     25  C14 UNL     1       1.479   5.199  -2.710  1.00  0.00     0.037 A   
ATOM     26  C16 UNL     1      -0.323   3.700  -3.232  1.00  0.00     0.109 A   
ATOM     27  C15 UNL     1       0.532   4.714  -3.585  1.00  0.00     0.108 A   
ATOM     28  O2  UNL     1      -1.177   3.368  -4.236  1.00  0.00    -0.316 OA  
ATOM     29  O3  UNL     1       0.324   5.150  -4.854  1.00  0.00    -0.316 OA  
ATOM     30  C18 UNL     1      -0.778   4.308  -5.259  1.00  0.00     0.337 C   
ENDBRANCH  21  22
ENDBRANCH  18  21
ENDBRANCH  17  18
BRANCH  17  31
ATOM     31  C19 UNL     1       3.234   0.076  -0.519  1.00  0.00     0.037 C   
ATOM     32  C20 UNL     1       3.193  -1.168  -1.415  1.00  0.00     0.014 C   
ATOM     33  C21 UNL     1       3.976  -0.242   0.783  1.00  0.00     0.014 C   
ENDBRANCH  17  31
ENDBRANCH   3  17
TORSDOF 9
