REMARK SMILES Cc1ccsc1[C@H](O)Cn1cc([C@@H]([NH2+]Cc2ccc3c(c2)OCO3)C(C)C)nn1
REMARK SMILES IDX 10 1 11 2 12 3 28 4 29 5 9 7 7 8 6 9 2 10 3 11 4 12 5 13
REMARK SMILES IDX 1 14 8 15 13 17 14 18 15 21 16 22 17 23 21 24 18 25 20 26
REMARK SMILES IDX 19 27 22 28 24 29 23 30 25 31 26 32 27 33
REMARK H PARENT 11 6 8 16 14 19 14 20
ROOT
ATOM     1   N1  UNL     1      -0.350   2.486   0.692  1.00  0.00    -0.209 N   
ATOM     2   C8  UNL     1       0.483   2.027   1.673  1.00  0.00     0.045 A   
ATOM     3   C9  UNL     1       1.443   1.315   0.990  1.00  0.00     0.127 A   
ATOM     4   N3  UNL     1       1.155   1.349  -0.353  1.00  0.00    -0.132 NA  
ATOM     5   N4  UNL     1       0.055   2.064  -0.521  1.00  0.00    -0.076 NA  
ATOM     6   H10 UNL     1       0.312   2.240   2.721  1.00  0.00     0.083 HD  
ENDROOT
BRANCH   1   7
ATOM     7   C7  UNL     1      -1.523   3.325   0.830  1.00  0.00     0.171 C   
BRANCH   7   8
ATOM     8   C6  UNL     1      -2.804   2.493   0.837  1.00  0.00     0.171 C   
BRANCH   8   9
ATOM     9   C5  UNL     1      -4.036   3.362   0.742  1.00  0.00     0.022 A   
ATOM     10  C2  UNL     1      -4.905   3.500  -0.333  1.00  0.00    -0.038 A   
ATOM     11  C3  UNL     1      -5.952   4.434  -0.037  1.00  0.00     0.011 A   
ATOM     12  C4  UNL     1      -5.852   4.964   1.228  1.00  0.00     0.046 A   
ATOM     13  S1  UNL     1      -4.504   4.352   2.067  1.00  0.00    -0.099 S   
ATOM     14  C1  UNL     1      -4.790   2.778  -1.639  1.00  0.00     0.045 C   
ENDBRANCH   8   9
BRANCH   8  15
ATOM     15  O1  UNL     1      -2.888   1.731   2.047  1.00  0.00    -0.386 OA  
ATOM     16  H7  UNL     1      -3.828   1.492   2.166  1.00  0.00     0.211 HD  
ENDBRANCH   8  15
ENDBRANCH   7   8
ENDBRANCH   1   7
BRANCH   3  17
ATOM     17  C10 UNL     1       2.616   0.526   1.472  1.00  0.00     0.117 C   
BRANCH  17  18
ATOM     18  N2  UNL     1       2.875  -0.634   0.541  1.00  0.00     0.249 N   
ATOM     19  H12 UNL     1       2.818  -0.264  -0.419  1.00  0.00     0.199 HD  
ATOM     20  H13 UNL     1       3.825  -1.003   0.656  1.00  0.00     0.199 HD  
BRANCH  18  21
ATOM     21  C11 UNL     1       1.899  -1.755   0.638  1.00  0.00     0.164 C   
BRANCH  21  22
ATOM     22  C12 UNL     1       2.242  -2.836  -0.348  1.00  0.00    -0.002 A   
ATOM     23  C13 UNL     1       3.039  -3.938   0.043  1.00  0.00     0.012 A   
ATOM     24  C17 UNL     1       1.812  -2.730  -1.683  1.00  0.00     0.045 A   
ATOM     25  C14 UNL     1       3.394  -4.929  -0.878  1.00  0.00     0.037 A   
ATOM     26  C16 UNL     1       2.180  -3.725  -2.565  1.00  0.00     0.109 A   
ATOM     27  C15 UNL     1       2.949  -4.794  -2.175  1.00  0.00     0.108 A   
ATOM     28  O2  UNL     1       1.848  -3.778  -3.882  1.00  0.00    -0.316 OA  
ATOM     29  O3  UNL     1       3.197  -5.655  -3.196  1.00  0.00    -0.316 OA  
ATOM     30  C18 UNL     1       2.479  -5.018  -4.275  1.00  0.00     0.337 C   
ENDBRANCH  21  22
ENDBRANCH  18  21
ENDBRANCH  17  18
BRANCH  17  31
ATOM     31  C19 UNL     1       3.925   1.347   1.604  1.00  0.00     0.037 C   
ATOM     32  C20 UNL     1       4.397   1.994   0.297  1.00  0.00     0.014 C   
ATOM     33  C21 UNL     1       3.817   2.413   2.700  1.00  0.00     0.014 C   
ENDBRANCH  17  31
ENDBRANCH   3  17
TORSDOF 9
