REMARK SMILES Cc1ccc(CCn2cc([C@@H]([NH2+]Cc3ccc4c(c3)OCO4)C(C)(C)C)nn2)c(Cl)n1
REMARK SMILES IDX 8 1 9 2 10 3 27 4 28 5 7 7 6 8 5 9 2 10 3 11 31 12 4 13
REMARK SMILES IDX 29 14 1 15 30 16 11 17 12 18 13 21 14 22 15 23 19 24 16 25
REMARK SMILES IDX 18 26 17 27 20 28 22 29 21 30 23 31 24 32 25 33 26 34
REMARK H PARENT 9 6 12 19 12 20
ROOT
ATOM     1   N1  UNL     1       0.440  -0.197  -3.050  1.00  0.00    -0.212 N   
ATOM     2   C8  UNL     1      -0.006   0.385  -1.898  1.00  0.00     0.045 A   
ATOM     3   C9  UNL     1       1.119   0.461  -1.107  1.00  0.00     0.127 A   
ATOM     4   N3  UNL     1       2.186  -0.061  -1.794  1.00  0.00    -0.132 NA  
ATOM     5   N4  UNL     1       1.757  -0.455  -2.982  1.00  0.00    -0.076 NA  
ATOM     6   H10 UNL     1      -1.042   0.655  -1.744  1.00  0.00     0.083 HD  
ENDROOT
BRANCH   1   7
ATOM     7   C7  UNL     1      -0.329  -0.576  -4.218  1.00  0.00     0.139 C   
BRANCH   7   8
ATOM     8   C6  UNL     1      -0.754  -2.049  -4.214  1.00  0.00     0.060 C   
BRANCH   8   9
ATOM     9   C5  UNL     1      -1.698  -2.385  -3.084  1.00  0.00    -0.009 A   
ATOM     10  C2  UNL     1      -3.402  -2.856  -0.956  1.00  0.00     0.039 A   
ATOM     11  C3  UNL     1      -3.911  -2.277  -2.112  1.00  0.00     0.024 A   
ATOM     12  N5  UNL     1      -2.099  -3.193  -0.828  1.00  0.00    -0.241 NA  
ATOM     13  C4  UNL     1      -3.049  -2.033  -3.180  1.00  0.00     0.009 A   
ATOM     14  C23 UNL     1      -1.295  -2.986  -1.894  1.00  0.00     0.132 A   
ATOM     15  C1  UNL     1      -4.304  -3.127   0.211  1.00  0.00     0.067 C   
ATOM     16  CL1 UNL     1       0.318  -3.502  -1.595  1.00  0.00    -0.062 Cl  
ENDBRANCH   8   9
ENDBRANCH   7   8
ENDBRANCH   1   7
BRANCH   3  17
ATOM     17  C10 UNL     1       1.305   0.921   0.308  1.00  0.00     0.120 C   
BRANCH  17  18
ATOM     18  N2  UNL     1       2.328   0.024   0.979  1.00  0.00     0.250 N   
ATOM     19  H12 UNL     1       3.075  -0.121   0.283  1.00  0.00     0.199 HD  
ATOM     20  H13 UNL     1       2.759   0.477   1.785  1.00  0.00     0.199 HD  
BRANCH  18  21
ATOM     21  C11 UNL     1       1.845  -1.329   1.389  1.00  0.00     0.164 C   
BRANCH  21  22
ATOM     22  C12 UNL     1       0.838  -1.279   2.505  1.00  0.00    -0.002 A   
ATOM     23  C13 UNL     1      -0.494  -1.701   2.279  1.00  0.00     0.012 A   
ATOM     24  C17 UNL     1       1.203  -0.800   3.775  1.00  0.00     0.045 A   
ATOM     25  C14 UNL     1      -1.454  -1.632   3.293  1.00  0.00     0.037 A   
ATOM     26  C16 UNL     1       0.231  -0.743   4.753  1.00  0.00     0.109 A   
ATOM     27  C15 UNL     1      -1.060  -1.145   4.519  1.00  0.00     0.108 A   
ATOM     28  O1  UNL     1       0.415  -0.297   6.023  1.00  0.00    -0.316 OA  
ATOM     29  O2  UNL     1      -1.853  -1.004   5.613  1.00  0.00    -0.316 OA  
ATOM     30  C18 UNL     1      -0.906  -0.494   6.576  1.00  0.00     0.337 C   
ENDBRANCH  21  22
ENDBRANCH  18  21
ENDBRANCH  17  18
BRANCH  17  31
ATOM     31  C19 UNL     1       1.730   2.426   0.445  1.00  0.00     0.010 C   
ATOM     32  C20 UNL     1       3.126   2.707  -0.144  1.00  0.00     0.017 C   
ATOM     33  C21 UNL     1       1.734   2.846   1.934  1.00  0.00     0.017 C   
ATOM     34  C22 UNL     1       0.707   3.337  -0.272  1.00  0.00     0.017 C   
ENDBRANCH  17  31
ENDBRANCH   3  17
TORSDOF 8
