REMARK SMILES CC(C)(C)[C@H]([NH2+]Cc1ccc2c(c1)OCO2)c1cn(-c2cc(Cl)ccc2O)nn1
REMARK SMILES IDX 17 1 18 2 19 3 28 4 29 5 5 6 2 7 1 8 3 9 4 10 6 11 7 14 8 15
REMARK SMILES IDX 9 16 13 17 10 18 12 19 11 20 14 21 16 22 15 23 20 24 21 25
REMARK SMILES IDX 26 26 22 27 25 28 24 29 23 30 27 31
REMARK H PARENT 6 12 6 13 27 32
ROOT
ATOM     1   C14 UNL     1      -0.874  -0.492   0.779  1.00  0.00     0.128 A   
ATOM     2   C15 UNL     1      -2.120  -0.025   1.130  1.00  0.00     0.135 A   
ATOM     3   N2  UNL     1      -2.467  -0.713   2.277  1.00  0.00    -0.178 N   
ATOM     4   N3  UNL     1      -1.421  -1.523   2.611  1.00  0.00    -0.071 NA  
ATOM     5   N4  UNL     1      -0.463  -1.402   1.708  1.00  0.00    -0.131 NA  
ENDROOT
BRANCH   1   6
ATOM     6   C5  UNL     1       0.042  -0.114  -0.346  1.00  0.00     0.120 C   
BRANCH   6   7
ATOM     7   C2  UNL     1      -0.121  -1.000  -1.632  1.00  0.00     0.010 C   
ATOM     8   C1  UNL     1       0.749  -0.440  -2.783  1.00  0.00     0.017 C   
ATOM     9   C3  UNL     1      -1.587  -0.965  -2.123  1.00  0.00     0.017 C   
ATOM     10  C4  UNL     1       0.276  -2.471  -1.398  1.00  0.00     0.017 C   
ENDBRANCH   6   7
BRANCH   6  11
ATOM     11  N1  UNL     1       1.475  -0.168   0.149  1.00  0.00     0.250 N   
ATOM     12  H11 UNL     1       2.137  -0.173  -0.628  1.00  0.00     0.199 HD  
ATOM     13  H12 UNL     1       1.577  -1.069   0.638  1.00  0.00     0.199 HD  
BRANCH  11  14
ATOM     14  C6  UNL     1       1.883   0.900   1.112  1.00  0.00     0.164 C   
BRANCH  14  15
ATOM     15  C7  UNL     1       1.913   2.267   0.488  1.00  0.00    -0.002 A   
ATOM     16  C8  UNL     1       0.947   3.237   0.851  1.00  0.00     0.012 A   
ATOM     17  C12 UNL     1       2.880   2.585  -0.482  1.00  0.00     0.045 A   
ATOM     18  C9  UNL     1       0.936   4.501   0.252  1.00  0.00     0.037 A   
ATOM     19  C11 UNL     1       2.840   3.839  -1.054  1.00  0.00     0.109 A   
ATOM     20  C10 UNL     1       1.895   4.770  -0.700  1.00  0.00     0.108 A   
ATOM     21  O1  UNL     1       3.691   4.300  -2.008  1.00  0.00    -0.316 OA  
ATOM     22  O2  UNL     1       2.032   5.935  -1.385  1.00  0.00    -0.316 OA  
ATOM     23  C13 UNL     1       3.189   5.643  -2.198  1.00  0.00     0.337 C   
ENDBRANCH  14  15
ENDBRANCH  11  14
ENDBRANCH   6  11
ENDBRANCH   1   6
BRANCH   3  24
ATOM     24  C16 UNL     1      -3.644  -0.669   3.072  1.00  0.00     0.089 A   
ATOM     25  C17 UNL     1      -3.709  -1.503   4.207  1.00  0.00     0.049 A   
ATOM     26  C21 UNL     1      -4.741   0.155   2.781  1.00  0.00     0.095 A   
ATOM     27  C18 UNL     1      -4.840  -1.504   5.022  1.00  0.00     0.043 A   
ATOM     28  C20 UNL     1      -5.873   0.147   3.605  1.00  0.00     0.037 A   
ATOM     29  C19 UNL     1      -5.922  -0.683   4.726  1.00  0.00     0.023 A   
ATOM     30  CL1 UNL     1      -4.897  -2.526   6.404  1.00  0.00    -0.084 Cl  
BRANCH  26  31
ATOM     31  O3  UNL     1      -4.747   0.990   1.700  1.00  0.00    -0.359 OA  
ATOM     32  H24 UNL     1      -5.609   1.443   1.648  1.00  0.00     0.218 HD  
ENDBRANCH  26  31
ENDBRANCH   3  24
TORSDOF 7
