REMARK SMILES CC(C)C[C@H]([NH2+]Cc1ccc2c(c1)OCO2)c1cn(C[C@@H](O)Cc2ccccc2)nn1
REMARK SMILES IDX 17 1 18 2 19 3 30 4 31 5 5 7 4 8 2 9 1 10 3 11 6 12 7 15
REMARK SMILES IDX 8 16 9 17 13 18 10 19 12 20 11 21 14 22 16 23 15 24 20 25
REMARK SMILES IDX 21 26 22 27 23 29 24 30 25 31 29 32 26 33 28 34 27 35
REMARK H PARENT 18 6 6 13 6 14 22 28
ROOT
ATOM     1   C14 UNL     1      -0.065   1.066  -1.393  1.00  0.00     0.127 A   
ATOM     2   C15 UNL     1      -0.170   2.328  -1.932  1.00  0.00     0.045 A   
ATOM     3   N2  UNL     1       0.779   2.346  -2.915  1.00  0.00    -0.210 N   
ATOM     4   N3  UNL     1       1.357   1.134  -3.046  1.00  0.00    -0.076 NA  
ATOM     5   N4  UNL     1       0.879   0.354  -2.091  1.00  0.00    -0.132 NA  
ATOM     6   H20 UNL     1      -0.775   3.193  -1.698  1.00  0.00     0.083 HD  
ENDROOT
BRANCH   1   7
ATOM     7   C5  UNL     1      -0.798   0.416  -0.265  1.00  0.00     0.114 C   
BRANCH   7   8
ATOM     8   C4  UNL     1      -0.198   0.828   1.092  1.00  0.00     0.064 C   
BRANCH   8   9
ATOM     9   C2  UNL     1      -0.932   0.326   2.352  1.00  0.00    -0.012 C   
ATOM     10  C1  UNL     1      -2.387   0.789   2.404  1.00  0.00     0.007 C   
ATOM     11  C3  UNL     1      -0.193   0.811   3.603  1.00  0.00     0.007 C   
ENDBRANCH   8   9
ENDBRANCH   7   8
BRANCH   7  12
ATOM     12  N1  UNL     1      -0.725  -1.081  -0.400  1.00  0.00     0.249 N   
ATOM     13  H11 UNL     1      -0.912  -1.565   0.481  1.00  0.00     0.199 HD  
ATOM     14  H12 UNL     1       0.254  -1.296  -0.646  1.00  0.00     0.199 HD  
BRANCH  12  15
ATOM     15  C6  UNL     1      -1.582  -1.666  -1.467  1.00  0.00     0.164 C   
BRANCH  15  16
ATOM     16  C7  UNL     1      -1.359  -3.149  -1.558  1.00  0.00    -0.002 A   
ATOM     17  C8  UNL     1      -2.221  -4.049  -0.888  1.00  0.00     0.012 A   
ATOM     18  C12 UNL     1      -0.252  -3.647  -2.267  1.00  0.00     0.045 A   
ATOM     19  C9  UNL     1      -1.988  -5.428  -0.926  1.00  0.00     0.037 A   
ATOM     20  C11 UNL     1      -0.050  -5.011  -2.283  1.00  0.00     0.109 A   
ATOM     21  C10 UNL     1      -0.893  -5.877  -1.631  1.00  0.00     0.108 A   
ATOM     22  O1  UNL     1       0.969  -5.653  -2.913  1.00  0.00    -0.316 OA  
ATOM     23  O2  UNL     1      -0.514  -7.173  -1.771  1.00  0.00    -0.316 OA  
ATOM     24  C13 UNL     1       0.661  -7.030  -2.599  1.00  0.00     0.337 C   
ENDBRANCH  15  16
ENDBRANCH  12  15
ENDBRANCH   7  12
ENDBRANCH   1   7
BRANCH   3  25
ATOM     25  C16 UNL     1       1.091   3.404  -3.846  1.00  0.00     0.166 C   
BRANCH  25  26
ATOM     26  C17 UNL     1       1.602   4.716  -3.239  1.00  0.00     0.138 C   
BRANCH  26  27
ATOM     27  O3  UNL     1       0.573   5.358  -2.480  1.00  0.00    -0.391 OA  
ATOM     28  H24 UNL     1       0.891   6.253  -2.259  1.00  0.00     0.211 HD  
ENDBRANCH  26  27
BRANCH  26  29
ATOM     29  C18 UNL     1       2.935   4.636  -2.471  1.00  0.00     0.069 C   
BRANCH  29  30
ATOM     30  C19 UNL     1       2.947   3.887  -1.159  1.00  0.00    -0.045 A   
ATOM     31  C20 UNL     1       2.322   4.415  -0.021  1.00  0.00     0.004 A   
ATOM     32  C24 UNL     1       3.646   2.678  -1.040  1.00  0.00     0.004 A   
ATOM     33  C21 UNL     1       2.401   3.753   1.207  1.00  0.00     0.000 A   
ATOM     34  C23 UNL     1       3.717   2.013   0.185  1.00  0.00     0.000 A   
ATOM     35  C22 UNL     1       3.100   2.554   1.311  1.00  0.00     0.000 A   
ENDBRANCH  29  30
ENDBRANCH  26  29
ENDBRANCH  25  26
ENDBRANCH   3  25
TORSDOF 11
