REMARK SMILES CC(C)C[C@H]([NH2+]Cc1ccc2c(c1)OCO2)c1cn(C[C@H](O)Cc2ccccc2)nn1
REMARK SMILES IDX 17 1 18 2 19 3 30 4 31 5 5 7 4 8 2 9 1 10 3 11 6 12 7 15
REMARK SMILES IDX 8 16 9 17 13 18 10 19 12 20 11 21 14 22 16 23 15 24 20 25
REMARK SMILES IDX 21 26 22 27 23 29 24 30 25 31 29 32 26 33 28 34 27 35
REMARK H PARENT 18 6 6 13 6 14 22 28
ROOT
ATOM     1   C14 UNL     1      -1.245   0.694  -0.360  1.00  0.00     0.127 A   
ATOM     2   C15 UNL     1      -1.267  -0.490  -1.060  1.00  0.00     0.045 A   
ATOM     3   N2  UNL     1      -1.466  -0.105  -2.356  1.00  0.00    -0.210 N   
ATOM     4   N3  UNL     1      -1.575   1.234  -2.446  1.00  0.00    -0.076 NA  
ATOM     5   N4  UNL     1      -1.416   1.737  -1.232  1.00  0.00    -0.132 NA  
ATOM     6   H20 UNL     1      -1.158  -1.529  -0.778  1.00  0.00     0.083 HD  
ENDROOT
BRANCH   1   7
ATOM     7   C5  UNL     1      -0.969   0.972   1.075  1.00  0.00     0.114 C   
BRANCH   7   8
ATOM     8   C4  UNL     1      -2.167   1.581   1.832  1.00  0.00     0.064 C   
BRANCH   8   9
ATOM     9   C2  UNL     1      -3.371   0.659   2.128  1.00  0.00    -0.012 C   
ATOM     10  C1  UNL     1      -4.244   0.380   0.906  1.00  0.00     0.007 C   
ATOM     11  C3  UNL     1      -2.965  -0.646   2.812  1.00  0.00     0.007 C   
ENDBRANCH   8   9
ENDBRANCH   7   8
BRANCH   7  12
ATOM     12  N1  UNL     1       0.159   1.985   1.166  1.00  0.00     0.249 N   
ATOM     13  H11 UNL     1       0.254   2.329   2.125  1.00  0.00     0.199 HD  
ATOM     14  H12 UNL     1      -0.127   2.779   0.576  1.00  0.00     0.199 HD  
BRANCH  12  15
ATOM     15  C6  UNL     1       1.490   1.522   0.673  1.00  0.00     0.164 C   
BRANCH  15  16
ATOM     16  C7  UNL     1       2.112   0.483   1.564  1.00  0.00    -0.002 A   
ATOM     17  C8  UNL     1       2.700   0.854   2.797  1.00  0.00     0.012 A   
ATOM     18  C12 UNL     1       2.081  -0.873   1.192  1.00  0.00     0.045 A   
ATOM     19  C9  UNL     1       3.246  -0.112   3.651  1.00  0.00     0.037 A   
ATOM     20  C11 UNL     1       2.625  -1.799   2.058  1.00  0.00     0.109 A   
ATOM     21  C10 UNL     1       3.189  -1.430   3.253  1.00  0.00     0.108 A   
ATOM     22  O1  UNL     1       2.665  -3.142   1.857  1.00  0.00    -0.316 OA  
ATOM     23  O2  UNL     1       3.659  -2.494   3.955  1.00  0.00    -0.316 OA  
ATOM     24  C13 UNL     1       3.342  -3.579   3.058  1.00  0.00     0.337 C   
ENDBRANCH  15  16
ENDBRANCH  12  15
ENDBRANCH   7  12
ENDBRANCH   1   7
BRANCH   3  25
ATOM     25  C16 UNL     1      -1.728  -0.943  -3.502  1.00  0.00     0.166 C   
BRANCH  25  26
ATOM     26  C17 UNL     1      -0.551  -1.789  -3.999  1.00  0.00     0.138 C   
BRANCH  26  27
ATOM     27  O3  UNL     1      -0.101  -2.694  -2.988  1.00  0.00    -0.391 OA  
ATOM     28  H24 UNL     1       0.506  -3.328  -3.414  1.00  0.00     0.211 HD  
ENDBRANCH  26  27
BRANCH  26  29
ATOM     29  C18 UNL     1       0.606  -1.011  -4.652  1.00  0.00     0.069 C   
BRANCH  29  30
ATOM     30  C19 UNL     1       1.529  -0.210  -3.763  1.00  0.00    -0.045 A   
ATOM     31  C20 UNL     1       2.481  -0.848  -2.955  1.00  0.00     0.004 A   
ATOM     32  C24 UNL     1       1.532   1.191  -3.822  1.00  0.00     0.004 A   
ATOM     33  C21 UNL     1       3.431  -0.105  -2.249  1.00  0.00     0.000 A   
ATOM     34  C23 UNL     1       2.481   1.933  -3.115  1.00  0.00     0.000 A   
ATOM     35  C22 UNL     1       3.438   1.285  -2.338  1.00  0.00     0.000 A   
ENDBRANCH  29  30
ENDBRANCH  26  29
ENDBRANCH  25  26
ENDBRANCH   3  25
TORSDOF 11
