REMARK SMILES CC(C)(C)c1n[nH]cc1CCn1cc([C@@H]([NH2+]Cc2ccc3c(c2)OCO3)C2CCCCC2)nn1
REMARK SMILES IDX 12 1 13 2 14 3 33 4 34 5 11 7 10 8 9 9 5 10 6 11 7 12 8 13
REMARK SMILES IDX 2 15 1 16 3 17 4 18 15 19 16 20 17 23 18 24 19 25 23 26
REMARK SMILES IDX 20 27 22 28 21 29 24 30 26 31 25 32 27 33 28 34 32 35 29 36
REMARK SMILES IDX 31 37 30 38
REMARK H PARENT 13 6 7 14 16 21 16 22
ROOT
ATOM     1   N3  UNL     1      -0.877   0.031  -3.857  1.00  0.00    -0.212 N   
ATOM     2   C10 UNL     1      -1.004  -0.839  -2.805  1.00  0.00     0.045 A   
ATOM     3   C11 UNL     1      -1.584  -0.065  -1.823  1.00  0.00     0.127 A   
ATOM     4   N5  UNL     1      -1.975   1.128  -2.369  1.00  0.00    -0.132 NA  
ATOM     5   N6  UNL     1      -1.573   1.157  -3.630  1.00  0.00    -0.076 NA  
ATOM     6   H16 UNL     1      -0.518  -1.804  -2.792  1.00  0.00     0.083 HD  
ENDROOT
BRANCH   1   7
ATOM     7   C9  UNL     1       0.159   0.001  -4.875  1.00  0.00     0.139 C   
BRANCH   7   8
ATOM     8   C8  UNL     1       1.387   0.856  -4.491  1.00  0.00     0.060 C   
BRANCH   8   9
ATOM     9   C7  UNL     1       1.839   0.628  -3.076  1.00  0.00    -0.007 A   
ATOM     10  C5  UNL     1       1.866   1.529  -1.958  1.00  0.00     0.068 A   
ATOM     11  N1  UNL     1       1.969   0.821  -0.814  1.00  0.00    -0.189 NA  
ATOM     12  N2  UNL     1       2.453  -0.371  -1.220  1.00  0.00    -0.245 N   
ATOM     13  C6  UNL     1       2.299  -0.567  -2.556  1.00  0.00     0.097 A   
ATOM     14  H10 UNL     1       2.809  -1.025  -0.526  1.00  0.00     0.175 HD  
BRANCH  10  15
ATOM     15  C2  UNL     1       1.774   3.057  -1.907  1.00  0.00     0.006 C   
ATOM     16  C1  UNL     1       0.372   3.569  -2.270  1.00  0.00     0.017 C   
ATOM     17  C3  UNL     1       2.101   3.590  -0.488  1.00  0.00     0.017 C   
ATOM     18  C4  UNL     1       2.809   3.684  -2.865  1.00  0.00     0.017 C   
ENDBRANCH  10  15
ENDBRANCH   8   9
ENDBRANCH   7   8
ENDBRANCH   1   7
BRANCH   3  19
ATOM     19  C12 UNL     1      -1.642  -0.290  -0.343  1.00  0.00     0.117 C   
BRANCH  19  20
ATOM     20  N4  UNL     1      -0.756   0.731   0.326  1.00  0.00     0.249 N   
ATOM     21  H18 UNL     1      -1.117   1.660   0.080  1.00  0.00     0.199 HD  
ATOM     22  H19 UNL     1       0.175   0.711  -0.145  1.00  0.00     0.199 HD  
BRANCH  20  23
ATOM     23  C13 UNL     1      -0.502   0.646   1.785  1.00  0.00     0.164 C   
BRANCH  23  24
ATOM     24  C14 UNL     1       0.374  -0.512   2.183  1.00  0.00    -0.002 A   
ATOM     25  C15 UNL     1       1.779  -0.348   2.246  1.00  0.00     0.012 A   
ATOM     26  C19 UNL     1      -0.184  -1.768   2.475  1.00  0.00     0.045 A   
ATOM     27  C16 UNL     1       2.619  -1.417   2.578  1.00  0.00     0.037 A   
ATOM     28  C18 UNL     1       0.672  -2.803   2.793  1.00  0.00     0.109 A   
ATOM     29  C17 UNL     1       2.033  -2.634   2.842  1.00  0.00     0.108 A   
ATOM     30  O1  UNL     1       0.296  -4.076   3.084  1.00  0.00    -0.316 OA  
ATOM     31  O2  UNL     1       2.687  -3.778   3.168  1.00  0.00    -0.316 OA  
ATOM     32  C20 UNL     1       1.578  -4.683   3.366  1.00  0.00     0.337 C   
ENDBRANCH  23  24
ENDBRANCH  20  23
ENDBRANCH  19  20
BRANCH  19  33
ATOM     33  C21 UNL     1      -3.075  -0.290   0.251  1.00  0.00     0.043 C   
ATOM     34  C22 UNL     1      -3.988  -1.312  -0.450  1.00  0.00     0.010 C   
ATOM     35  C26 UNL     1      -3.759   1.094   0.323  1.00  0.00     0.010 C   
ATOM     36  C23 UNL     1      -5.313  -1.500   0.295  1.00  0.00     0.001 C   
ATOM     37  C25 UNL     1      -5.289   1.022   0.363  1.00  0.00     0.001 C   
ATOM     38  C24 UNL     1      -5.781  -0.249   1.038  1.00  0.00     0.000 C   
ENDBRANCH  19  33
ENDBRANCH   3  19
TORSDOF 9
