REMARK SMILES CC(C)[C@H]([NH2+]Cc1ccc2c(c1)OCO2)c1cn([C@H](CO)c2ncccc2F)nn1
REMARK SMILES IDX 16 1 17 2 18 3 29 4 30 5 4 7 2 8 1 9 3 10 5 11 6 14 7 15
REMARK SMILES IDX 8 16 12 17 9 18 11 19 10 20 13 21 15 22 14 23 19 24 20 25
REMARK SMILES IDX 21 26 22 28 23 29 27 30 24 31 26 32 25 33 28 34
REMARK H PARENT 17 6 5 12 5 13 21 27
ROOT
ATOM     1   C13 UNL     1      -1.474   0.285   0.569  1.00  0.00     0.127 A   
ATOM     2   C14 UNL     1      -1.386   1.174   1.616  1.00  0.00     0.046 A   
ATOM     3   N2  UNL     1      -0.360   0.692   2.386  1.00  0.00    -0.201 N   
ATOM     4   N4  UNL     1       0.180  -0.406   1.808  1.00  0.00    -0.075 NA  
ATOM     5   N5  UNL     1      -0.493  -0.661   0.699  1.00  0.00    -0.132 NA  
ATOM     6   H18 UNL     1      -1.952   2.054   1.885  1.00  0.00     0.083 HD  
ENDROOT
BRANCH   1   7
ATOM     7   C4  UNL     1      -2.374   0.243  -0.622  1.00  0.00     0.117 C   
BRANCH   7   8
ATOM     8   C2  UNL     1      -3.695  -0.535  -0.393  1.00  0.00     0.037 C   
ATOM     9   C1  UNL     1      -3.498  -2.001   0.013  1.00  0.00     0.014 C   
ATOM     10  C3  UNL     1      -4.596   0.167   0.628  1.00  0.00     0.014 C   
ENDBRANCH   7   8
BRANCH   7  11
ATOM     11  N1  UNL     1      -1.644  -0.386  -1.784  1.00  0.00     0.249 N   
ATOM     12  H9  UNL     1      -2.291  -0.741  -2.494  1.00  0.00     0.199 HD  
ATOM     13  H10 UNL     1      -1.147  -1.207  -1.404  1.00  0.00     0.199 HD  
BRANCH  11  14
ATOM     14  C5  UNL     1      -0.619   0.479  -2.431  1.00  0.00     0.164 C   
BRANCH  14  15
ATOM     15  C6  UNL     1       0.121  -0.287  -3.491  1.00  0.00    -0.002 A   
ATOM     16  C7  UNL     1      -0.289  -0.224  -4.844  1.00  0.00     0.012 A   
ATOM     17  C11 UNL     1       1.198  -1.116  -3.131  1.00  0.00     0.045 A   
ATOM     18  C8  UNL     1       0.369  -0.969  -5.829  1.00  0.00     0.037 A   
ATOM     19  C10 UNL     1       1.825  -1.836  -4.127  1.00  0.00     0.109 A   
ATOM     20  C9  UNL     1       1.422  -1.765  -5.438  1.00  0.00     0.108 A   
ATOM     21  O1  UNL     1       2.874  -2.680  -3.952  1.00  0.00    -0.316 OA  
ATOM     22  O2  UNL     1       2.166  -2.556  -6.253  1.00  0.00    -0.316 OA  
ATOM     23  C12 UNL     1       3.106  -3.116  -5.310  1.00  0.00     0.337 C   
ENDBRANCH  14  15
ENDBRANCH  11  14
ENDBRANCH   7  11
ENDBRANCH   1   7
BRANCH   3  24
ATOM     24  C15 UNL     1       0.169   1.171   3.658  1.00  0.00     0.177 C   
BRANCH  24  25
ATOM     25  C16 UNL     1      -0.787   2.085   4.444  1.00  0.00     0.187 C   
BRANCH  25  26
ATOM     26  O3  UNL     1      -1.977   1.386   4.815  1.00  0.00    -0.394 OA  
ATOM     27  H22 UNL     1      -2.445   1.939   5.468  1.00  0.00     0.210 HD  
ENDBRANCH  25  26
ENDBRANCH  24  25
BRANCH  24  28
ATOM     28  C17 UNL     1       1.481   1.881   3.410  1.00  0.00     0.101 A   
ATOM     29  N3  UNL     1       1.444   3.118   2.835  1.00  0.00    -0.256 NA  
ATOM     30  C21 UNL     1       2.679   1.265   3.763  1.00  0.00     0.146 A   
ATOM     31  C18 UNL     1       2.630   3.739   2.631  1.00  0.00     0.111 A   
ATOM     32  C20 UNL     1       3.880   1.923   3.538  1.00  0.00     0.043 A   
ATOM     33  C19 UNL     1       3.859   3.188   2.962  1.00  0.00     0.023 A   
ATOM     34  F1  UNL     1       2.688   0.053   4.331  1.00  0.00    -0.205 F   
ENDBRANCH  24  28
ENDBRANCH   3  24
TORSDOF 9
