REMARK SMILES CC(C)[C@H]([NH2+]Cc1ccc2c(c1)OCO2)c1cn([C@@H](CO)c2ncccc2F)nn1
REMARK SMILES IDX 16 1 17 2 18 3 29 4 30 5 4 7 2 8 1 9 3 10 5 11 6 14 7 15
REMARK SMILES IDX 8 16 12 17 9 18 11 19 10 20 13 21 15 22 14 23 19 24 20 25
REMARK SMILES IDX 21 26 22 28 23 29 27 30 24 31 26 32 25 33 28 34
REMARK H PARENT 17 6 5 12 5 13 21 27
ROOT
ATOM     1   C13 UNL     1       1.435  -0.726   0.187  1.00  0.00     0.127 A   
ATOM     2   C14 UNL     1       2.212  -1.378  -0.741  1.00  0.00     0.046 A   
ATOM     3   N2  UNL     1       1.373  -2.307  -1.298  1.00  0.00    -0.201 N   
ATOM     4   N4  UNL     1       0.144  -2.220  -0.738  1.00  0.00    -0.075 NA  
ATOM     5   N5  UNL     1       0.179  -1.272   0.183  1.00  0.00    -0.132 NA  
ATOM     6   H18 UNL     1       3.243  -1.267  -1.047  1.00  0.00     0.083 HD  
ENDROOT
BRANCH   1   7
ATOM     7   C4  UNL     1       1.737   0.425   1.092  1.00  0.00     0.117 C   
BRANCH   7   8
ATOM     8   C2  UNL     1       2.540  -0.009   2.346  1.00  0.00     0.037 C   
ATOM     9   C1  UNL     1       1.744  -0.877   3.326  1.00  0.00     0.014 C   
ATOM     10  C3  UNL     1       3.132   1.196   3.087  1.00  0.00     0.014 C   
ENDBRANCH   7   8
BRANCH   7  11
ATOM     11  N1  UNL     1       0.466   1.121   1.500  1.00  0.00     0.249 N   
ATOM     12  H9  UNL     1      -0.204   0.383   1.758  1.00  0.00     0.199 HD  
ATOM     13  H10 UNL     1       0.591   1.704   2.330  1.00  0.00     0.199 HD  
BRANCH  11  14
ATOM     14  C5  UNL     1      -0.179   1.937   0.431  1.00  0.00     0.164 C   
BRANCH  14  15
ATOM     15  C6  UNL     1      -1.502   2.471   0.899  1.00  0.00    -0.002 A   
ATOM     16  C7  UNL     1      -1.614   3.793   1.393  1.00  0.00     0.012 A   
ATOM     17  C11 UNL     1      -2.637   1.640   0.880  1.00  0.00     0.045 A   
ATOM     18  C8  UNL     1      -2.841   4.288   1.846  1.00  0.00     0.037 A   
ATOM     19  C10 UNL     1      -3.830   2.157   1.340  1.00  0.00     0.109 A   
ATOM     20  C9  UNL     1      -3.930   3.445   1.805  1.00  0.00     0.108 A   
ATOM     21  O1  UNL     1      -5.013   1.492   1.389  1.00  0.00    -0.316 OA  
ATOM     22  O2  UNL     1      -5.192   3.757   2.196  1.00  0.00    -0.316 OA  
ATOM     23  C12 UNL     1      -5.883   2.520   1.917  1.00  0.00     0.337 C   
ENDBRANCH  14  15
ENDBRANCH  11  14
ENDBRANCH   7  11
ENDBRANCH   1   7
BRANCH   3  24
ATOM     24  C15 UNL     1       1.623  -3.294  -2.343  1.00  0.00     0.177 C   
BRANCH  24  25
ATOM     25  C16 UNL     1       2.738  -2.899  -3.328  1.00  0.00     0.187 C   
BRANCH  25  26
ATOM     26  O3  UNL     1       2.393  -1.712  -4.043  1.00  0.00    -0.394 OA  
ATOM     27  H22 UNL     1       3.027  -1.627  -4.776  1.00  0.00     0.210 HD  
ENDBRANCH  25  26
ENDBRANCH  24  25
BRANCH  24  28
ATOM     28  C17 UNL     1       1.934  -4.625  -1.697  1.00  0.00     0.101 A   
ATOM     29  N3  UNL     1       3.165  -4.791  -1.133  1.00  0.00    -0.256 NA  
ATOM     30  C21 UNL     1       0.971  -5.630  -1.678  1.00  0.00     0.146 A   
ATOM     31  C18 UNL     1       3.423  -5.990  -0.555  1.00  0.00     0.111 A   
ATOM     32  C20 UNL     1       1.259  -6.846  -1.077  1.00  0.00     0.043 A   
ATOM     33  C19 UNL     1       2.513  -7.034  -0.503  1.00  0.00     0.023 A   
ATOM     34  F1  UNL     1      -0.230  -5.442  -2.240  1.00  0.00    -0.205 F   
ENDBRANCH  24  28
ENDBRANCH   3  24
TORSDOF 9
