REMARK SMILES COc1cc(C)ccc1Cn1cc([C@@H]([NH2+]Cc2ccc3c(c2)OCO3)C(C)(C)C)nn1
REMARK SMILES IDX 11 1 12 2 13 3 30 4 31 5 10 7 9 8 3 9 4 10 5 11 8 12 7 13
REMARK SMILES IDX 6 14 2 15 1 16 14 17 15 18 16 21 17 22 18 23 22 24 19 25
REMARK SMILES IDX 21 26 20 27 23 28 25 29 24 30 26 31 27 32 28 33 29 34
REMARK H PARENT 12 6 15 19 15 20
ROOT
ATOM     1   N1  UNL     1       2.856   1.176   0.509  1.00  0.00    -0.208 N   
ATOM     2   C10 UNL     1       1.847   1.565  -0.327  1.00  0.00     0.046 A   
ATOM     3   C11 UNL     1       1.013   2.306   0.480  1.00  0.00     0.127 A   
ATOM     4   N3  UNL     1       1.549   2.376   1.740  1.00  0.00    -0.132 NA  
ATOM     5   N4  UNL     1       2.681   1.691   1.743  1.00  0.00    -0.076 NA  
ATOM     6   H12 UNL     1       1.793   1.240  -1.357  1.00  0.00     0.083 HD  
ENDROOT
BRANCH   1   7
ATOM     7   C9  UNL     1       3.968   0.287   0.221  1.00  0.00     0.172 C   
BRANCH   7   8
ATOM     8   C8  UNL     1       3.620  -1.137   0.583  1.00  0.00     0.002 A   
ATOM     9   C2  UNL     1       2.900  -1.966  -0.297  1.00  0.00     0.080 A   
ATOM     10  C3  UNL     1       2.579  -3.272   0.088  1.00  0.00     0.037 A   
ATOM     11  C4  UNL     1       2.978  -3.773   1.336  1.00  0.00    -0.049 A   
ATOM     12  C7  UNL     1       3.996  -1.636   1.841  1.00  0.00     0.008 A   
ATOM     13  C6  UNL     1       3.677  -2.941   2.214  1.00  0.00     0.004 A   
ATOM     14  C5  UNL     1       2.607  -5.169   1.748  1.00  0.00     0.044 C   
BRANCH   9  15
ATOM     15  O1  UNL     1       2.534  -1.398  -1.491  1.00  0.00    -0.349 OA  
ATOM     16  C1  UNL     1       2.083  -2.285  -2.512  1.00  0.00     0.203 C   
ENDBRANCH   9  15
ENDBRANCH   7   8
ENDBRANCH   1   7
BRANCH   3  17
ATOM     17  C12 UNL     1      -0.347   2.870   0.219  1.00  0.00     0.120 C   
BRANCH  17  18
ATOM     18  N2  UNL     1      -1.252   2.530   1.390  1.00  0.00     0.250 N   
ATOM     19  H14 UNL     1      -2.150   3.011   1.310  1.00  0.00     0.199 HD  
ATOM     20  H15 UNL     1      -0.779   2.887   2.231  1.00  0.00     0.199 HD  
BRANCH  18  21
ATOM     21  C13 UNL     1      -1.508   1.075   1.632  1.00  0.00     0.164 C   
BRANCH  21  22
ATOM     22  C14 UNL     1      -2.205   0.394   0.487  1.00  0.00    -0.002 A   
ATOM     23  C15 UNL     1      -3.565   0.670   0.208  1.00  0.00     0.012 A   
ATOM     24  C19 UNL     1      -1.496  -0.501  -0.336  1.00  0.00     0.045 A   
ATOM     25  C16 UNL     1      -4.210   0.071  -0.879  1.00  0.00     0.037 A   
ATOM     26  C18 UNL     1      -2.162  -1.073  -1.400  1.00  0.00     0.109 A   
ATOM     27  C17 UNL     1      -3.480  -0.793  -1.665  1.00  0.00     0.108 A   
ATOM     28  O2  UNL     1      -1.627  -1.945  -2.294  1.00  0.00    -0.316 OA  
ATOM     29  O3  UNL     1      -3.942  -1.457  -2.756  1.00  0.00    -0.316 OA  
ATOM     30  C20 UNL     1      -2.772  -2.212  -3.136  1.00  0.00     0.337 C   
ENDBRANCH  21  22
ENDBRANCH  18  21
ENDBRANCH  17  18
BRANCH  17  31
ATOM     31  C21 UNL     1      -0.365   4.414  -0.060  1.00  0.00     0.010 C   
ATOM     32  C22 UNL     1       0.083   5.254   1.152  1.00  0.00     0.017 C   
ATOM     33  C23 UNL     1       0.567   4.743  -1.250  1.00  0.00     0.017 C   
ATOM     34  C24 UNL     1      -1.787   4.869  -0.462  1.00  0.00     0.017 C   
ENDBRANCH  17  31
ENDBRANCH   3  17
TORSDOF 8
