REMARK SMILES CC(C)C[C@H]([NH2+]Cc1ccc2c(c1)OCO2)c1cn(Cc2c(F)cncc2Cl)nn1
REMARK SMILES IDX 17 1 18 2 19 3 29 4 30 5 5 7 4 8 2 9 1 10 3 11 6 12 7 15
REMARK SMILES IDX 8 16 9 17 13 18 10 19 12 20 11 21 14 22 16 23 15 24 20 25
REMARK SMILES IDX 21 26 22 27 27 28 24 29 26 30 25 31 23 32 28 33
REMARK H PARENT 18 6 6 13 6 14
ROOT
ATOM     1   C14 UNL     1      -1.076   0.760  -0.011  1.00  0.00     0.127 A   
ATOM     2   C15 UNL     1       0.090   1.230  -0.573  1.00  0.00     0.046 A   
ATOM     3   N2  UNL     1       0.017   2.585  -0.401  1.00  0.00    -0.208 N   
ATOM     4   N4  UNL     1      -1.136   2.929   0.203  1.00  0.00    -0.076 NA  
ATOM     5   N5  UNL     1      -1.820   1.820   0.435  1.00  0.00    -0.132 NA  
ATOM     6   H20 UNL     1       0.948   0.747  -1.020  1.00  0.00     0.083 HD  
ENDROOT
BRANCH   1   7
ATOM     7   C5  UNL     1      -1.552  -0.636   0.219  1.00  0.00     0.114 C   
BRANCH   7   8
ATOM     8   C4  UNL     1      -2.526  -1.070  -0.897  1.00  0.00     0.064 C   
BRANCH   8   9
ATOM     9   C2  UNL     1      -3.066  -2.514  -0.815  1.00  0.00    -0.012 C   
ATOM     10  C1  UNL     1      -3.994  -2.783  -2.004  1.00  0.00     0.007 C   
ATOM     11  C3  UNL     1      -1.949  -3.558  -0.786  1.00  0.00     0.007 C   
ENDBRANCH   8   9
ENDBRANCH   7   8
BRANCH   7  12
ATOM     12  N1  UNL     1      -2.246  -0.774   1.556  1.00  0.00     0.249 N   
ATOM     13  H11 UNL     1      -2.577  -1.734   1.679  1.00  0.00     0.199 HD  
ATOM     14  H12 UNL     1      -3.072  -0.162   1.525  1.00  0.00     0.199 HD  
BRANCH  12  15
ATOM     15  C6  UNL     1      -1.463  -0.386   2.772  1.00  0.00     0.164 C   
BRANCH  15  16
ATOM     16  C7  UNL     1      -0.133  -1.078   2.886  1.00  0.00    -0.002 A   
ATOM     17  C8  UNL     1      -0.059  -2.464   3.158  1.00  0.00     0.012 A   
ATOM     18  C12 UNL     1       1.053  -0.347   2.688  1.00  0.00     0.045 A   
ATOM     19  C9  UNL     1       1.177  -3.117   3.220  1.00  0.00     0.037 A   
ATOM     20  C11 UNL     1       2.253  -1.021   2.752  1.00  0.00     0.109 A   
ATOM     21  C10 UNL     1       2.314  -2.368   3.010  1.00  0.00     0.108 A   
ATOM     22  O1  UNL     1       3.482  -0.470   2.570  1.00  0.00    -0.316 OA  
ATOM     23  O2  UNL     1       3.589  -2.835   3.027  1.00  0.00    -0.316 OA  
ATOM     24  C13 UNL     1       4.332  -1.621   2.789  1.00  0.00     0.337 C   
ENDBRANCH  15  16
ENDBRANCH  12  15
ENDBRANCH   7  12
ENDBRANCH   1   7
BRANCH   3  25
ATOM     25  C16 UNL     1       1.024   3.586  -0.717  1.00  0.00     0.174 C   
BRANCH  25  26
ATOM     26  C17 UNL     1       1.938   3.805   0.457  1.00  0.00     0.029 A   
ATOM     27  C18 UNL     1       2.993   2.912   0.672  1.00  0.00     0.147 A   
ATOM     28  C21 UNL     1       1.767   4.834   1.391  1.00  0.00     0.067 A   
ATOM     29  C19 UNL     1       3.818   3.061   1.774  1.00  0.00     0.150 A   
ATOM     30  C20 UNL     1       2.645   4.913   2.469  1.00  0.00     0.132 A   
ATOM     31  N3  UNL     1       3.663   4.045   2.685  1.00  0.00    -0.260 NA  
ATOM     32  F1  UNL     1       3.193   1.895  -0.177  1.00  0.00    -0.205 F   
ATOM     33  CL1 UNL     1       0.506   5.999   1.267  1.00  0.00    -0.082 Cl  
ENDBRANCH  25  26
ENDBRANCH   3  25
TORSDOF 8
