REMARK SMILES Cc1ccoc1C(=O)n1cc([C@@H]([NH2+]Cc2ccc3c(c2)OCO3)C(C)(C)C)nn1
REMARK SMILES IDX 9 1 10 2 11 3 28 4 29 5 7 6 8 7 6 8 2 9 3 10 4 11 5 12 1 13
REMARK SMILES IDX 12 14 13 15 14 18 15 19 16 20 20 21 17 22 19 23 18 24 21 25
REMARK SMILES IDX 23 26 22 27 24 28 25 29 26 30 27 31
REMARK H PARENT 13 16 13 17
ROOT
ATOM     1   N1  UNL     1      -0.554   2.205  -0.126  1.00  0.00    -0.142 N   
ATOM     2   C7  UNL     1      -1.089   1.147   0.599  1.00  0.00     0.139 A   
ATOM     3   C8  UNL     1      -0.010   0.520   1.176  1.00  0.00     0.128 A   
ATOM     4   N3  UNL     1       1.135   1.148   0.772  1.00  0.00    -0.131 NA  
ATOM     5   N4  UNL     1       0.800   2.156  -0.018  1.00  0.00    -0.068 NA  
ENDROOT
BRANCH   1   6
ATOM     6   C6  UNL     1      -1.247   3.175  -0.883  1.00  0.00     0.295 C   
ATOM     7   O2  UNL     1      -2.469   3.015  -0.908  1.00  0.00    -0.267 OA  
BRANCH   6   8
ATOM     8   C5  UNL     1      -0.597   4.274  -1.577  1.00  0.00     0.149 A   
ATOM     9   C2  UNL     1      -1.121   5.253  -2.415  1.00  0.00    -0.013 A   
ATOM     10  C3  UNL     1      -0.024   6.083  -2.786  1.00  0.00     0.032 A   
ATOM     11  C4  UNL     1       1.083   5.569  -2.159  1.00  0.00     0.137 A   
ATOM     12  O1  UNL     1       0.748   4.476  -1.433  1.00  0.00    -0.312 OA  
ATOM     13  C1  UNL     1      -2.536   5.415  -2.841  1.00  0.00     0.047 C   
ENDBRANCH   6   8
ENDBRANCH   1   6
BRANCH   3  14
ATOM     14  C9  UNL     1       0.077  -0.693   2.057  1.00  0.00     0.120 C   
BRANCH  14  15
ATOM     15  N2  UNL     1       1.320  -1.480   1.687  1.00  0.00     0.250 N   
ATOM     16  H8  UNL     1       2.087  -0.794   1.624  1.00  0.00     0.199 HD  
ATOM     17  H9  UNL     1       1.572  -2.142   2.424  1.00  0.00     0.199 HD  
BRANCH  15  18
ATOM     18  C10 UNL     1       1.278  -2.215   0.387  1.00  0.00     0.164 C   
BRANCH  18  19
ATOM     19  C11 UNL     1       0.334  -3.385   0.415  1.00  0.00    -0.002 A   
ATOM     20  C12 UNL     1       0.665  -4.556   1.140  1.00  0.00     0.012 A   
ATOM     21  C16 UNL     1      -0.901  -3.311  -0.254  1.00  0.00     0.045 A   
ATOM     22  C13 UNL     1      -0.223  -5.635   1.206  1.00  0.00     0.037 A   
ATOM     23  C15 UNL     1      -1.753  -4.392  -0.167  1.00  0.00     0.109 A   
ATOM     24  C14 UNL     1      -1.425  -5.521   0.543  1.00  0.00     0.108 A   
ATOM     25  O3  UNL     1      -2.980  -4.478  -0.742  1.00  0.00    -0.316 OA  
ATOM     26  O4  UNL     1      -2.404  -6.461   0.501  1.00  0.00    -0.316 OA  
ATOM     27  C17 UNL     1      -3.378  -5.810  -0.343  1.00  0.00     0.337 C   
ENDBRANCH  18  19
ENDBRANCH  15  18
ENDBRANCH  14  15
BRANCH  14  28
ATOM     28  C18 UNL     1       0.077  -0.370   3.594  1.00  0.00     0.010 C   
ATOM     29  C19 UNL     1       1.342   0.389   4.045  1.00  0.00     0.017 C   
ATOM     30  C20 UNL     1      -0.022  -1.679   4.413  1.00  0.00     0.017 C   
ATOM     31  C21 UNL     1      -1.158   0.483   3.964  1.00  0.00     0.017 C   
ENDBRANCH  14  28
ENDBRANCH   3  14
TORSDOF 7
