REMARK SMILES OC[C@H](c1ccc(F)c(F)c1)n1cc([C@@H]([NH2+]Cc2ccc3c(c2)OCO3)C2CCCC2)nn1
REMARK SMILES IDX 12 1 13 2 14 3 32 4 33 5 3 7 2 8 1 9 4 11 5 12 11 13 6 14
REMARK SMILES IDX 9 15 7 16 10 17 8 18 15 19 16 20 17 23 18 24 19 25 23 26
REMARK SMILES IDX 20 27 22 28 21 29 24 30 26 31 25 32 27 33 28 34 31 35 29 36
REMARK SMILES IDX 30 37
REMARK H PARENT 13 6 1 10 16 21 16 22
ROOT
ATOM     1   N1  UNL     1      -2.204   1.027  -0.300  1.00  0.00    -0.202 N   
ATOM     2   C9  UNL     1      -1.486   1.077   0.867  1.00  0.00     0.046 A   
ATOM     3   C10 UNL     1      -0.254   0.564   0.526  1.00  0.00     0.127 A   
ATOM     4   N3  UNL     1      -0.262   0.218  -0.801  1.00  0.00    -0.132 NA  
ATOM     5   N4  UNL     1      -1.456   0.498  -1.292  1.00  0.00    -0.075 NA  
ATOM     6   H8  UNL     1      -1.906   1.456   1.788  1.00  0.00     0.083 HD  
ENDROOT
BRANCH   1   7
ATOM     7   C2  UNL     1      -3.583   1.466  -0.524  1.00  0.00     0.155 C   
BRANCH   7   8
ATOM     8   C1  UNL     1      -4.437   0.373  -1.190  1.00  0.00     0.185 C   
BRANCH   8   9
ATOM     9   O1  UNL     1      -4.679  -0.689  -0.263  1.00  0.00    -0.394 OA  
ATOM     10  H1  UNL     1      -5.256  -1.334  -0.716  1.00  0.00     0.210 HD  
ENDBRANCH   8   9
ENDBRANCH   7   8
BRANCH   7  11
ATOM     11  C3  UNL     1      -3.602   2.793  -1.271  1.00  0.00    -0.020 A   
ATOM     12  C4  UNL     1      -3.966   3.973  -0.595  1.00  0.00     0.009 A   
ATOM     13  C8  UNL     1      -3.251   2.880  -2.631  1.00  0.00     0.048 A   
ATOM     14  C5  UNL     1      -3.978   5.204  -1.259  1.00  0.00     0.043 A   
ATOM     15  C7  UNL     1      -3.264   4.111  -3.284  1.00  0.00     0.159 A   
ATOM     16  C6  UNL     1      -3.625   5.265  -2.602  1.00  0.00     0.158 A   
ATOM     17  F2  UNL     1      -2.919   4.169  -4.577  1.00  0.00    -0.204 F   
ATOM     18  F1  UNL     1      -3.631   6.448  -3.230  1.00  0.00    -0.204 F   
ENDBRANCH   7  11
ENDBRANCH   1   7
BRANCH   3  19
ATOM     19  C11 UNL     1       0.977   0.320   1.338  1.00  0.00     0.117 C   
BRANCH  19  20
ATOM     20  N2  UNL     1       1.756  -0.829   0.757  1.00  0.00     0.249 N   
ATOM     21  H10 UNL     1       1.737  -0.708  -0.268  1.00  0.00     0.199 HD  
ATOM     22  H11 UNL     1       2.743  -0.811   1.026  1.00  0.00     0.199 HD  
BRANCH  20  23
ATOM     23  C12 UNL     1       1.196  -2.180   1.037  1.00  0.00     0.164 C   
BRANCH  23  24
ATOM     24  C13 UNL     1       2.027  -3.239   0.369  1.00  0.00    -0.002 A   
ATOM     25  C14 UNL     1       3.060  -3.896   1.078  1.00  0.00     0.012 A   
ATOM     26  C18 UNL     1       1.815  -3.543  -0.987  1.00  0.00     0.045 A   
ATOM     27  C15 UNL     1       3.864  -4.853   0.450  1.00  0.00     0.037 A   
ATOM     28  C17 UNL     1       2.627  -4.490  -1.575  1.00  0.00     0.109 A   
ATOM     29  C16 UNL     1       3.623  -5.127  -0.877  1.00  0.00     0.108 A   
ATOM     30  O2  UNL     1       2.556  -4.899  -2.869  1.00  0.00    -0.316 OA  
ATOM     31  O3  UNL     1       4.303  -6.019  -1.643  1.00  0.00    -0.316 OA  
ATOM     32  C19 UNL     1       3.606  -5.892  -2.902  1.00  0.00     0.337 C   
ENDBRANCH  23  24
ENDBRANCH  20  23
ENDBRANCH  19  20
BRANCH  19  33
ATOM     33  C20 UNL     1       1.853   1.584   1.432  1.00  0.00     0.043 C   
ATOM     34  C21 UNL     1       3.005   1.489   2.438  1.00  0.00     0.010 C   
ATOM     35  C24 UNL     1       2.531   2.047   0.131  1.00  0.00     0.010 C   
ATOM     36  C22 UNL     1       3.867   2.686   2.071  1.00  0.00     0.001 C   
ATOM     37  C23 UNL     1       3.854   2.695   0.548  1.00  0.00     0.001 C   
ENDBRANCH  19  33
ENDBRANCH   3  19
TORSDOF 9
