REMARK SMILES OC[C@@H](c1ccc(F)c(F)c1)n1cc([C@@H]([NH2+]Cc2ccc3c(c2)OCO3)C2CCCC2)nn1
REMARK SMILES IDX 12 1 13 2 14 3 32 4 33 5 3 7 2 8 1 9 4 11 5 12 11 13 6 14
REMARK SMILES IDX 9 15 7 16 10 17 8 18 15 19 16 20 17 23 18 24 19 25 23 26
REMARK SMILES IDX 20 27 22 28 21 29 24 30 26 31 25 32 27 33 28 34 31 35 29 36
REMARK SMILES IDX 30 37
REMARK H PARENT 13 6 1 10 16 21 16 22
ROOT
ATOM     1   N1  UNL     1       0.231   0.924   0.482  1.00  0.00    -0.202 N   
ATOM     2   C9  UNL     1       0.672   0.358  -0.685  1.00  0.00     0.046 A   
ATOM     3   C10 UNL     1      -0.343   0.596  -1.581  1.00  0.00     0.127 A   
ATOM     4   N3  UNL     1      -1.341   1.296  -0.953  1.00  0.00    -0.132 NA  
ATOM     5   N4  UNL     1      -0.983   1.487   0.306  1.00  0.00    -0.075 NA  
ATOM     6   H8  UNL     1       1.618  -0.162  -0.751  1.00  0.00     0.083 HD  
ENDROOT
BRANCH   1   7
ATOM     7   C2  UNL     1       0.897   1.010   1.779  1.00  0.00     0.155 C   
BRANCH   7   8
ATOM     8   C1  UNL     1       1.051  -0.369   2.450  1.00  0.00     0.185 C   
BRANCH   8   9
ATOM     9   O1  UNL     1       1.792  -1.307   1.668  1.00  0.00    -0.394 OA  
ATOM     10  H1  UNL     1       1.887  -2.114   2.210  1.00  0.00     0.210 HD  
ENDBRANCH   8   9
ENDBRANCH   7   8
BRANCH   7  11
ATOM     11  C3  UNL     1       2.150   1.874   1.669  1.00  0.00    -0.020 A   
ATOM     12  C4  UNL     1       2.007   3.279   1.680  1.00  0.00     0.009 A   
ATOM     13  C8  UNL     1       3.441   1.341   1.524  1.00  0.00     0.048 A   
ATOM     14  C5  UNL     1       3.120   4.119   1.558  1.00  0.00     0.043 A   
ATOM     15  C7  UNL     1       4.545   2.187   1.401  1.00  0.00     0.159 A   
ATOM     16  C6  UNL     1       4.386   3.565   1.418  1.00  0.00     0.158 A   
ATOM     17  F2  UNL     1       5.764   1.651   1.254  1.00  0.00    -0.204 F   
ATOM     18  F1  UNL     1       5.448   4.373   1.288  1.00  0.00    -0.204 F   
ENDBRANCH   7  11
ENDBRANCH   1   7
BRANCH   3  19
ATOM     19  C11 UNL     1      -0.529   0.175  -3.003  1.00  0.00     0.117 C   
BRANCH  19  20
ATOM     20  N2  UNL     1      -1.994  -0.117  -3.251  1.00  0.00     0.249 N   
ATOM     21  H10 UNL     1      -2.508   0.443  -2.552  1.00  0.00     0.199 HD  
ATOM     22  H11 UNL     1      -2.295   0.239  -4.161  1.00  0.00     0.199 HD  
BRANCH  20  23
ATOM     23  C12 UNL     1      -2.421  -1.540  -3.114  1.00  0.00     0.164 C   
BRANCH  23  24
ATOM     24  C13 UNL     1      -2.166  -2.136  -1.756  1.00  0.00    -0.002 A   
ATOM     25  C14 UNL     1      -2.873  -1.670  -0.621  1.00  0.00     0.012 A   
ATOM     26  C18 UNL     1      -1.197  -3.142  -1.599  1.00  0.00     0.045 A   
ATOM     27  C15 UNL     1      -2.599  -2.174   0.657  1.00  0.00     0.037 A   
ATOM     28  C17 UNL     1      -0.961  -3.626  -0.328  1.00  0.00     0.109 A   
ATOM     29  C16 UNL     1      -1.636  -3.151   0.768  1.00  0.00     0.108 A   
ATOM     30  O2  UNL     1      -0.058  -4.590  -0.005  1.00  0.00    -0.316 OA  
ATOM     31  O3  UNL     1      -1.233  -3.745   1.921  1.00  0.00    -0.316 OA  
ATOM     32  C19 UNL     1      -0.289  -4.713   1.415  1.00  0.00     0.337 C   
ENDBRANCH  23  24
ENDBRANCH  20  23
ENDBRANCH  19  20
BRANCH  19  33
ATOM     33  C20 UNL     1      -0.009   1.245  -3.983  1.00  0.00     0.043 C   
ATOM     34  C21 UNL     1      -0.772   2.581  -4.002  1.00  0.00     0.010 C   
ATOM     35  C24 UNL     1       0.011   0.804  -5.450  1.00  0.00     0.010 C   
ATOM     36  C22 UNL     1      -0.681   3.101  -5.438  1.00  0.00     0.001 C   
ATOM     37  C23 UNL     1       0.209   2.118  -6.190  1.00  0.00     0.001 C   
ENDBRANCH  19  33
ENDBRANCH   3  19
TORSDOF 9
