REMARK SMILES Cc1cccc(CCn2cc([C@@H]([NH2+]Cc3ccc4c(c3)OCO4)C(C)C)nn2)c1F
REMARK SMILES IDX 9 1 10 2 11 3 27 4 28 5 8 7 7 8 6 9 2 10 3 11 29 12 4 13
REMARK SMILES IDX 5 14 1 15 30 16 12 17 13 18 14 21 15 22 16 23 20 24 17 25
REMARK SMILES IDX 19 26 18 27 21 28 23 29 22 30 24 31 25 32 26 33
REMARK H PARENT 10 6 13 19 13 20
ROOT
ATOM     1   N1  UNL     1       2.822   0.501   1.892  1.00  0.00    -0.212 N   
ATOM     2   C9  UNL     1       2.092   1.224   0.992  1.00  0.00     0.045 A   
ATOM     3   C10 UNL     1       0.813   1.190   1.500  1.00  0.00     0.127 A   
ATOM     4   N3  UNL     1       0.809   0.460   2.662  1.00  0.00    -0.132 NA  
ATOM     5   N4  UNL     1       2.044   0.043   2.889  1.00  0.00    -0.076 NA  
ATOM     6   H11 UNL     1       2.531   1.659   0.105  1.00  0.00     0.083 HD  
ENDROOT
BRANCH   1   7
ATOM     7   C8  UNL     1       4.233   0.183   1.846  1.00  0.00     0.139 C   
BRANCH   7   8
ATOM     8   C7  UNL     1       4.510  -1.289   1.531  1.00  0.00     0.060 C   
BRANCH   8   9
ATOM     9   C6  UNL     1       3.916  -1.797   0.236  1.00  0.00    -0.010 A   
ATOM     10  C2  UNL     1       3.674  -1.659  -2.194  1.00  0.00    -0.015 A   
ATOM     11  C3  UNL     1       2.874  -2.807  -2.172  1.00  0.00     0.006 A   
ATOM     12  C23 UNL     1       4.197  -1.180  -0.988  1.00  0.00     0.129 A   
ATOM     13  C4  UNL     1       2.587  -3.440  -0.962  1.00  0.00     0.001 A   
ATOM     14  C5  UNL     1       3.103  -2.938   0.235  1.00  0.00     0.007 A   
ATOM     15  C1  UNL     1       4.027  -0.992  -3.489  1.00  0.00     0.047 C   
ATOM     16  F1  UNL     1       4.983  -0.093  -1.008  1.00  0.00    -0.206 F   
ENDBRANCH   8   9
ENDBRANCH   7   8
ENDBRANCH   1   7
BRANCH   3  17
ATOM     17  C11 UNL     1      -0.472   1.720   0.955  1.00  0.00     0.117 C   
BRANCH  17  18
ATOM     18  N2  UNL     1      -1.603   0.752   1.237  1.00  0.00     0.249 N   
ATOM     19  H13 UNL     1      -2.502   1.189   1.017  1.00  0.00     0.199 HD  
ATOM     20  H14 UNL     1      -1.584   0.570   2.249  1.00  0.00     0.199 HD  
BRANCH  18  21
ATOM     21  C12 UNL     1      -1.521  -0.579   0.562  1.00  0.00     0.164 C   
BRANCH  21  22
ATOM     22  C13 UNL     1      -1.571  -0.490  -0.937  1.00  0.00    -0.002 A   
ATOM     23  C14 UNL     1      -0.397  -0.700  -1.700  1.00  0.00     0.012 A   
ATOM     24  C18 UNL     1      -2.772  -0.166  -1.592  1.00  0.00     0.045 A   
ATOM     25  C15 UNL     1      -0.413  -0.588  -3.093  1.00  0.00     0.037 A   
ATOM     26  C17 UNL     1      -2.753  -0.062  -2.968  1.00  0.00     0.109 A   
ATOM     27  C16 UNL     1      -1.607  -0.267  -3.697  1.00  0.00     0.108 A   
ATOM     28  O1  UNL     1      -3.819   0.247  -3.751  1.00  0.00    -0.316 OA  
ATOM     29  O2  UNL     1      -1.809  -0.115  -5.032  1.00  0.00    -0.316 OA  
ATOM     30  C19 UNL     1      -3.221   0.183  -5.066  1.00  0.00     0.337 C   
ENDBRANCH  21  22
ENDBRANCH  18  21
ENDBRANCH  17  18
BRANCH  17  31
ATOM     31  C20 UNL     1      -0.871   3.114   1.507  1.00  0.00     0.037 C   
ATOM     32  C21 UNL     1       0.125   4.196   1.071  1.00  0.00     0.014 C   
ATOM     33  C22 UNL     1      -1.055   3.168   3.028  1.00  0.00     0.014 C   
ENDBRANCH  17  31
ENDBRANCH   3  17
TORSDOF 8
