REMARK SMILES COc1cnc(Cn2cc([C@@H]([NH2+]Cc3ccc4c(c3)OCO4)C3CCCC3)nn2)c(C)c1
REMARK SMILES IDX 8 1 9 2 10 3 28 4 29 5 7 7 6 8 3 9 4 10 32 11 5 12 30 13
REMARK SMILES IDX 31 14 2 15 1 16 11 17 12 18 13 21 14 22 15 23 19 24 16 25
REMARK SMILES IDX 18 26 17 27 20 28 22 29 21 30 23 31 24 32 27 33 25 34 26 35
REMARK H PARENT 9 6 12 19 12 20
ROOT
ATOM     1   N2  UNL     1      -0.047   0.342  -2.419  1.00  0.00    -0.206 N   
ATOM     2   C6  UNL     1       0.351   0.605  -1.135  1.00  0.00     0.046 A   
ATOM     3   C7  UNL     1      -0.649   0.068  -0.359  1.00  0.00     0.127 A   
ATOM     4   N4  UNL     1      -1.630  -0.438  -1.175  1.00  0.00    -0.132 NA  
ATOM     5   N5  UNL     1      -1.262  -0.241  -2.431  1.00  0.00    -0.076 NA  
ATOM     6   H7  UNL     1       1.292   1.093  -0.916  1.00  0.00     0.083 HD  
ENDROOT
BRANCH   1   7
ATOM     7   C5  UNL     1       0.641   0.660  -3.657  1.00  0.00     0.190 C   
BRANCH   7   8
ATOM     8   C4  UNL     1       1.886  -0.176  -3.800  1.00  0.00     0.063 A   
ATOM     9   C2  UNL     1       4.266  -1.588  -3.947  1.00  0.00     0.093 A   
ATOM     10  C3  UNL     1       4.164  -0.347  -3.342  1.00  0.00     0.144 A   
ATOM     11  C24 UNL     1       3.102  -2.127  -4.488  1.00  0.00     0.040 A   
ATOM     12  N1  UNL     1       3.010   0.360  -3.247  1.00  0.00    -0.257 NA  
ATOM     13  C22 UNL     1       1.887  -1.430  -4.425  1.00  0.00    -0.025 A   
ATOM     14  C23 UNL     1       0.654  -2.041  -5.027  1.00  0.00     0.046 C   
BRANCH   9  15
ATOM     15  O1  UNL     1       5.385  -2.357  -4.074  1.00  0.00    -0.348 OA  
ATOM     16  C1  UNL     1       6.606  -1.794  -3.605  1.00  0.00     0.203 C   
ENDBRANCH   9  15
ENDBRANCH   7   8
ENDBRANCH   1   7
BRANCH   3  17
ATOM     17  C8  UNL     1      -0.815  -0.003   1.125  1.00  0.00     0.117 C   
BRANCH  17  18
ATOM     18  N3  UNL     1      -2.282   0.068   1.474  1.00  0.00     0.249 N   
ATOM     19  H9  UNL     1      -2.465  -0.244   2.432  1.00  0.00     0.199 HD  
ATOM     20  H10 UNL     1      -2.764  -0.600   0.854  1.00  0.00     0.199 HD  
BRANCH  18  21
ATOM     21  C9  UNL     1      -2.922   1.398   1.275  1.00  0.00     0.164 C   
BRANCH  21  22
ATOM     22  C10 UNL     1      -4.386   1.328   1.608  1.00  0.00    -0.002 A   
ATOM     23  C11 UNL     1      -4.849   1.685   2.897  1.00  0.00     0.012 A   
ATOM     24  C15 UNL     1      -5.300   0.853   0.650  1.00  0.00     0.045 A   
ATOM     25  C12 UNL     1      -6.205   1.580   3.227  1.00  0.00     0.037 A   
ATOM     26  C14 UNL     1      -6.628   0.761   1.009  1.00  0.00     0.109 A   
ATOM     27  C13 UNL     1      -7.069   1.114   2.261  1.00  0.00     0.108 A   
ATOM     28  O2  UNL     1      -7.635   0.322   0.209  1.00  0.00    -0.316 OA  
ATOM     29  O3  UNL     1      -8.409   0.945   2.406  1.00  0.00    -0.316 OA  
ATOM     30  C16 UNL     1      -8.769   0.456   1.096  1.00  0.00     0.337 C   
ENDBRANCH  21  22
ENDBRANCH  18  21
ENDBRANCH  17  18
BRANCH  17  31
ATOM     31  C17 UNL     1      -0.242  -1.310   1.709  1.00  0.00     0.043 C   
ATOM     32  C18 UNL     1       1.265  -1.478   1.484  1.00  0.00     0.010 C   
ATOM     33  C21 UNL     1      -0.365  -1.425   3.236  1.00  0.00     0.010 C   
ATOM     34  C19 UNL     1       1.635  -2.588   2.454  1.00  0.00     0.001 C   
ATOM     35  C20 UNL     1       0.794  -2.312   3.693  1.00  0.00     0.001 C   
ENDBRANCH  17  31
ENDBRANCH   3  17
TORSDOF 8
