REMARK SMILES COc1ccc(F)cc1Cn1cc([C@@H]([NH2+]Cc2ccc3c(c2)OCO3)C(C)(C)C)nn1
REMARK SMILES IDX 11 1 12 2 13 3 30 4 31 5 10 7 9 8 3 9 4 10 5 11 8 12 6 13
REMARK SMILES IDX 7 14 2 15 1 16 14 17 15 18 16 21 17 22 18 23 22 24 19 25
REMARK SMILES IDX 21 26 20 27 23 28 25 29 24 30 26 31 27 32 28 33 29 34
REMARK H PARENT 12 6 15 19 15 20
ROOT
ATOM     1   N1  UNL     1      -2.791  -0.440  -0.214  1.00  0.00    -0.208 N   
ATOM     2   C9  UNL     1      -1.569  -0.476  -0.826  1.00  0.00     0.046 A   
ATOM     3   C10 UNL     1      -1.002  -1.645  -0.369  1.00  0.00     0.127 A   
ATOM     4   N3  UNL     1      -1.888  -2.280   0.462  1.00  0.00    -0.132 NA  
ATOM     5   N4  UNL     1      -2.980  -1.539   0.544  1.00  0.00    -0.076 NA  
ATOM     6   H9  UNL     1      -1.218   0.325  -1.462  1.00  0.00     0.083 HD  
ENDROOT
BRANCH   1   7
ATOM     7   C8  UNL     1      -3.795   0.608  -0.271  1.00  0.00     0.172 C   
BRANCH   7   8
ATOM     8   C7  UNL     1      -3.657   1.550   0.901  1.00  0.00     0.005 A   
ATOM     9   C2  UNL     1      -2.726   2.609   0.891  1.00  0.00     0.080 A   
ATOM     10  C3  UNL     1      -2.619   3.450   2.005  1.00  0.00     0.037 A   
ATOM     11  C4  UNL     1      -3.427   3.244   3.126  1.00  0.00     0.042 A   
ATOM     12  C6  UNL     1      -4.457   1.350   2.040  1.00  0.00     0.047 A   
ATOM     13  C5  UNL     1      -4.335   2.196   3.134  1.00  0.00     0.123 A   
ATOM     14  F1  UNL     1      -5.100   1.992   4.214  1.00  0.00    -0.207 F   
BRANCH   9  15
ATOM     15  O1  UNL     1      -1.960   2.718  -0.240  1.00  0.00    -0.349 OA  
ATOM     16  C1  UNL     1      -1.178   3.902  -0.380  1.00  0.00     0.203 C   
ENDBRANCH   9  15
ENDBRANCH   7   8
ENDBRANCH   1   7
BRANCH   3  17
ATOM     17  C11 UNL     1       0.378  -2.195  -0.543  1.00  0.00     0.120 C   
BRANCH  17  18
ATOM     18  N2  UNL     1       0.886  -2.689   0.799  1.00  0.00     0.250 N   
ATOM     19  H11 UNL     1       0.189  -3.364   1.141  1.00  0.00     0.199 HD  
ATOM     20  H12 UNL     1       1.772  -3.187   0.693  1.00  0.00     0.199 HD  
BRANCH  18  21
ATOM     21  C12 UNL     1       1.043  -1.659   1.874  1.00  0.00     0.164 C   
BRANCH  21  22
ATOM     22  C13 UNL     1       2.038  -0.586   1.529  1.00  0.00    -0.002 A   
ATOM     23  C14 UNL     1       3.424  -0.872   1.509  1.00  0.00     0.012 A   
ATOM     24  C18 UNL     1       1.592   0.705   1.190  1.00  0.00     0.045 A   
ATOM     25  C15 UNL     1       4.354   0.109   1.149  1.00  0.00     0.037 A   
ATOM     26  C17 UNL     1       2.535   1.648   0.838  1.00  0.00     0.109 A   
ATOM     27  C16 UNL     1       3.877   1.358   0.817  1.00  0.00     0.108 A   
ATOM     28  O2  UNL     1       2.275   2.931   0.474  1.00  0.00    -0.316 OA  
ATOM     29  O3  UNL     1       4.631   2.423   0.442  1.00  0.00    -0.316 OA  
ATOM     30  C19 UNL     1       3.615   3.430   0.256  1.00  0.00     0.337 C   
ENDBRANCH  21  22
ENDBRANCH  18  21
ENDBRANCH  17  18
BRANCH  17  31
ATOM     31  C20 UNL     1       0.490  -3.327  -1.625  1.00  0.00     0.010 C   
ATOM     32  C21 UNL     1      -0.030  -2.808  -2.985  1.00  0.00     0.017 C   
ATOM     33  C22 UNL     1       1.970  -3.727  -1.830  1.00  0.00     0.017 C   
ATOM     34  C23 UNL     1      -0.303  -4.596  -1.256  1.00  0.00     0.017 C   
ENDBRANCH  17  31
ENDBRANCH   3  17
TORSDOF 8
