REMARK SMILES CC(C)(C)c1ocnc1Cn1cc([C@@H]([NH2+]Cc2ccc3c(c2)OCO3)C(C)(C)C)nn1
REMARK SMILES IDX 11 1 12 2 13 3 30 4 31 5 10 7 9 8 5 9 6 10 7 11 8 12 2 13
REMARK SMILES IDX 1 14 3 15 4 16 14 17 15 18 16 21 17 22 18 23 22 24 19 25
REMARK SMILES IDX 21 26 20 27 23 28 25 29 24 30 26 31 27 32 28 33 29 34
REMARK H PARENT 12 6 15 19 15 20
ROOT
ATOM     1   N2  UNL     1      -2.497   0.408   0.122  1.00  0.00    -0.206 N   
ATOM     2   C9  UNL     1      -2.180  -0.714  -0.595  1.00  0.00     0.046 A   
ATOM     3   C10 UNL     1      -1.597  -1.549   0.331  1.00  0.00     0.127 A   
ATOM     4   N4  UNL     1      -1.621  -0.943   1.561  1.00  0.00    -0.132 NA  
ATOM     5   N5  UNL     1      -2.174   0.252   1.422  1.00  0.00    -0.076 NA  
ATOM     6   H13 UNL     1      -2.330  -0.773  -1.665  1.00  0.00     0.083 HD  
ENDROOT
BRANCH   1   7
ATOM     7   C8  UNL     1      -3.030   1.665  -0.375  1.00  0.00     0.192 C   
BRANCH   7   8
ATOM     8   C7  UNL     1      -1.948   2.436  -1.040  1.00  0.00     0.089 A   
ATOM     9   C5  UNL     1      -1.333   3.628  -0.685  1.00  0.00     0.089 A   
ATOM     10  O1  UNL     1      -0.398   3.899  -1.654  1.00  0.00    -0.300 OA  
ATOM     11  C6  UNL     1      -0.501   2.874  -2.535  1.00  0.00     0.247 A   
ATOM     12  N1  UNL     1      -1.395   1.966  -2.220  1.00  0.00    -0.232 NA  
BRANCH   9  13
ATOM     13  C2  UNL     1      -1.464   4.622   0.443  1.00  0.00     0.011 C   
ATOM     14  C1  UNL     1      -0.415   5.749   0.324  1.00  0.00     0.018 C   
ATOM     15  C3  UNL     1      -2.861   5.266   0.409  1.00  0.00     0.018 C   
ATOM     16  C4  UNL     1      -1.250   3.921   1.796  1.00  0.00     0.018 C   
ENDBRANCH   9  13
ENDBRANCH   7   8
ENDBRANCH   1   7
BRANCH   3  17
ATOM     17  C11 UNL     1      -0.884  -2.851   0.148  1.00  0.00     0.120 C   
BRANCH  17  18
ATOM     18  N3  UNL     1       0.398  -2.847   0.962  1.00  0.00     0.250 N   
ATOM     19  H15 UNL     1       0.122  -2.683   1.939  1.00  0.00     0.199 HD  
ATOM     20  H16 UNL     1       0.857  -3.758   0.917  1.00  0.00     0.199 HD  
BRANCH  18  21
ATOM     21  C12 UNL     1       1.404  -1.790   0.624  1.00  0.00     0.164 C   
BRANCH  21  22
ATOM     22  C13 UNL     1       1.887  -1.847  -0.798  1.00  0.00    -0.002 A   
ATOM     23  C14 UNL     1       2.717  -2.907  -1.236  1.00  0.00     0.012 A   
ATOM     24  C18 UNL     1       1.496  -0.851  -1.712  1.00  0.00     0.045 A   
ATOM     25  C15 UNL     1       3.145  -2.979  -2.567  1.00  0.00     0.037 A   
ATOM     26  C17 UNL     1       1.936  -0.952  -3.014  1.00  0.00     0.109 A   
ATOM     27  C16 UNL     1       2.736  -1.987  -3.430  1.00  0.00     0.108 A   
ATOM     28  O2  UNL     1       1.651  -0.079  -4.017  1.00  0.00    -0.316 OA  
ATOM     29  O3  UNL     1       3.053  -1.899  -4.748  1.00  0.00    -0.316 OA  
ATOM     30  C19 UNL     1       2.378  -0.677  -5.114  1.00  0.00     0.337 C   
ENDBRANCH  21  22
ENDBRANCH  18  21
ENDBRANCH  17  18
BRANCH  17  31
ATOM     31  C20 UNL     1      -1.750  -4.114   0.497  1.00  0.00     0.010 C   
ATOM     32  C21 UNL     1      -3.040  -4.119  -0.357  1.00  0.00     0.017 C   
ATOM     33  C22 UNL     1      -2.155  -4.177   1.983  1.00  0.00     0.017 C   
ATOM     34  C23 UNL     1      -0.977  -5.408   0.153  1.00  0.00     0.017 C   
ENDBRANCH  17  31
ENDBRANCH   3  17
TORSDOF 8
