REMARK SMILES CC(C)(C)[C@H]([NH2+]Cc1ccc2c(c1)OCO2)c1cn(CCc2ccc(O)c(Cl)c2)nn1
REMARK SMILES IDX 17 1 18 2 19 3 30 4 31 5 5 7 2 8 1 9 3 10 4 11 6 12 7 15
REMARK SMILES IDX 8 16 9 17 13 18 10 19 12 20 11 21 14 22 16 23 15 24 20 25
REMARK SMILES IDX 21 26 22 27 23 28 29 29 24 30 27 31 25 32 28 33 26 34
REMARK H PARENT 18 6 6 13 6 14 26 35
ROOT
ATOM     1   C14 UNL     1      -0.916  -1.286   1.345  1.00  0.00     0.127 A   
ATOM     2   C15 UNL     1      -2.088  -0.560   1.343  1.00  0.00     0.045 A   
ATOM     3   N2  UNL     1      -2.378  -0.400   2.668  1.00  0.00    -0.212 N   
ATOM     4   N3  UNL     1      -1.443  -0.981   3.441  1.00  0.00    -0.076 NA  
ATOM     5   N4  UNL     1      -0.536  -1.519   2.642  1.00  0.00    -0.132 NA  
ATOM     6   H20 UNL     1      -2.703  -0.144   0.557  1.00  0.00     0.083 HD  
ENDROOT
BRANCH   1   7
ATOM     7   C5  UNL     1      -0.027  -1.725   0.222  1.00  0.00     0.120 C   
BRANCH   7   8
ATOM     8   C2  UNL     1      -0.260  -3.205  -0.243  1.00  0.00     0.010 C   
ATOM     9   C1  UNL     1       0.586  -3.512  -1.501  1.00  0.00     0.017 C   
ATOM     10  C3  UNL     1      -1.740  -3.410  -0.639  1.00  0.00     0.017 C   
ATOM     11  C4  UNL     1       0.096  -4.239   0.844  1.00  0.00     0.017 C   
ENDBRANCH   7   8
BRANCH   7  12
ATOM     12  N1  UNL     1       1.418  -1.523   0.638  1.00  0.00     0.250 N   
ATOM     13  H11 UNL     1       2.057  -2.022   0.017  1.00  0.00     0.199 HD  
ATOM     14  H12 UNL     1       1.507  -1.947   1.572  1.00  0.00     0.199 HD  
BRANCH  12  15
ATOM     15  C6  UNL     1       1.878  -0.106   0.753  1.00  0.00     0.164 C   
BRANCH  15  16
ATOM     16  C7  UNL     1       1.952   0.593  -0.575  1.00  0.00    -0.002 A   
ATOM     17  C8  UNL     1       0.982   1.559  -0.929  1.00  0.00     0.012 A   
ATOM     18  C12 UNL     1       2.969   0.270  -1.490  1.00  0.00     0.045 A   
ATOM     19  C9  UNL     1       1.022   2.200  -2.172  1.00  0.00     0.037 A   
ATOM     20  C11 UNL     1       2.977   0.916  -2.709  1.00  0.00     0.109 A   
ATOM     21  C10 UNL     1       2.031   1.854  -3.041  1.00  0.00     0.108 A   
ATOM     22  O1  UNL     1       3.882   0.717  -3.702  1.00  0.00    -0.316 OA  
ATOM     23  O2  UNL     1       2.222   2.365  -4.285  1.00  0.00    -0.316 OA  
ATOM     24  C13 UNL     1       3.408   1.654  -4.697  1.00  0.00     0.337 C   
ENDBRANCH  15  16
ENDBRANCH  12  15
ENDBRANCH   7  12
ENDBRANCH   1   7
BRANCH   3  25
ATOM     25  C16 UNL     1      -3.468   0.350   3.259  1.00  0.00     0.139 C   
BRANCH  25  26
ATOM     26  C17 UNL     1      -3.006   1.603   4.007  1.00  0.00     0.057 C   
BRANCH  26  27
ATOM     27  C18 UNL     1      -2.204   2.549   3.143  1.00  0.00    -0.045 A   
ATOM     28  C19 UNL     1      -2.834   3.353   2.183  1.00  0.00     0.006 A   
ATOM     29  C23 UNL     1      -0.805   2.601   3.268  1.00  0.00     0.027 A   
ATOM     30  C20 UNL     1      -2.080   4.185   1.352  1.00  0.00     0.035 A   
ATOM     31  C22 UNL     1      -0.056   3.433   2.437  1.00  0.00     0.071 A   
ATOM     32  C21 UNL     1      -0.696   4.218   1.479  1.00  0.00     0.090 A   
ATOM     33  CL1 UNL     1       1.663   3.431   2.565  1.00  0.00    -0.081 Cl  
BRANCH  32  34
ATOM     34  O3  UNL     1      -0.007   5.030   0.622  1.00  0.00    -0.359 OA  
ATOM     35  H27 UNL     1       0.918   5.079   0.931  1.00  0.00     0.218 HD  
ENDBRANCH  32  34
ENDBRANCH  26  27
ENDBRANCH  25  26
ENDBRANCH   3  25
TORSDOF 9
