REMARK SMILES CC(C)(C)[C@H]([NH2+]Cc1ccc2c(c1)OCO2)c1cn(C[C@H](O)c2cccnc2)nn1
REMARK SMILES IDX 17 1 18 2 19 3 29 4 30 5 5 7 2 8 1 9 3 10 4 11 6 12 7 15
REMARK SMILES IDX 8 16 9 17 13 18 10 19 12 20 11 21 14 22 16 23 15 24 20 25
REMARK SMILES IDX 21 26 22 27 23 29 24 30 28 31 25 32 27 33 26 34
REMARK H PARENT 18 6 6 13 6 14 22 28
ROOT
ATOM     1   C14 UNL     1      -2.085  -0.654  -0.679  1.00  0.00     0.127 A   
ATOM     2   C15 UNL     1      -1.738  -1.974  -0.866  1.00  0.00     0.046 A   
ATOM     3   N2  UNL     1      -2.107  -2.233  -2.156  1.00  0.00    -0.209 N   
ATOM     4   N4  UNL     1      -2.672  -1.150  -2.722  1.00  0.00    -0.076 NA  
ATOM     5   N5  UNL     1      -2.653  -0.172  -1.831  1.00  0.00    -0.132 NA  
ATOM     6   H20 UNL     1      -1.241  -2.707  -0.245  1.00  0.00     0.083 HD  
ENDROOT
BRANCH   1   7
ATOM     7   C5  UNL     1      -1.841   0.277   0.470  1.00  0.00     0.120 C   
BRANCH   7   8
ATOM     8   C2  UNL     1      -3.065   0.450   1.435  1.00  0.00     0.010 C   
ATOM     9   C1  UNL     1      -4.269   1.135   0.759  1.00  0.00     0.017 C   
ATOM     10  C3  UNL     1      -2.655   1.290   2.668  1.00  0.00     0.017 C   
ATOM     11  C4  UNL     1      -3.523  -0.930   1.962  1.00  0.00     0.017 C   
ENDBRANCH   7   8
BRANCH   7  12
ATOM     12  N1  UNL     1      -1.408   1.620  -0.087  1.00  0.00     0.250 N   
ATOM     13  H11 UNL     1      -1.559   2.375   0.584  1.00  0.00     0.199 HD  
ATOM     14  H12 UNL     1      -2.026   1.808  -0.890  1.00  0.00     0.199 HD  
BRANCH  12  15
ATOM     15  C6  UNL     1       0.002   1.696  -0.585  1.00  0.00     0.164 C   
BRANCH  15  16
ATOM     16  C7  UNL     1       1.000   1.698   0.540  1.00  0.00    -0.002 A   
ATOM     17  C8  UNL     1       1.793   0.553   0.791  1.00  0.00     0.012 A   
ATOM     18  C12 UNL     1       1.127   2.824   1.373  1.00  0.00     0.045 A   
ATOM     19  C9  UNL     1       2.692   0.521   1.862  1.00  0.00     0.037 A   
ATOM     20  C11 UNL     1       2.021   2.758   2.422  1.00  0.00     0.109 A   
ATOM     21  C10 UNL     1       2.780   1.640   2.661  1.00  0.00     0.108 A   
ATOM     22  O1  UNL     1       2.255   3.748   3.323  1.00  0.00    -0.316 OA  
ATOM     23  O2  UNL     1       3.586   1.785   3.743  1.00  0.00    -0.316 OA  
ATOM     24  C13 UNL     1       3.264   3.132   4.152  1.00  0.00     0.337 C   
ENDBRANCH  15  16
ENDBRANCH  12  15
ENDBRANCH   7  12
ENDBRANCH   1   7
BRANCH   3  25
ATOM     25  C16 UNL     1      -1.803  -3.401  -2.952  1.00  0.00     0.170 C   
BRANCH  25  26
ATOM     26  C17 UNL     1      -0.795  -3.112  -4.076  1.00  0.00     0.165 C   
BRANCH  26  27
ATOM     27  O3  UNL     1      -0.560  -4.323  -4.798  1.00  0.00    -0.387 OA  
ATOM     28  H24 UNL     1       0.130  -4.142  -5.463  1.00  0.00     0.211 HD  
ENDBRANCH  26  27
BRANCH  26  29
ATOM     29  C18 UNL     1       0.515  -2.564  -3.554  1.00  0.00     0.000 A   
ATOM     30  C19 UNL     1       1.539  -3.385  -3.073  1.00  0.00     0.009 A   
ATOM     31  C22 UNL     1       0.713  -1.186  -3.471  1.00  0.00     0.117 A   
ATOM     32  C20 UNL     1       2.699  -2.814  -2.558  1.00  0.00     0.020 A   
ATOM     33  N3  UNL     1       1.803  -0.601  -2.924  1.00  0.00    -0.264 NA  
ATOM     34  C21 UNL     1       2.787  -1.432  -2.510  1.00  0.00     0.111 A   
ENDBRANCH  26  29
ENDBRANCH  25  26
ENDBRANCH   3  25
TORSDOF 9
