REMARK SMILES CC(C)(C)[C@H]([NH2+]Cc1ccc2c(c1)OCO2)c1cn(C[C@@H](O)c2cccnc2)nn1
REMARK SMILES IDX 17 1 18 2 19 3 29 4 30 5 5 7 2 8 1 9 3 10 4 11 6 12 7 15
REMARK SMILES IDX 8 16 9 17 13 18 10 19 12 20 11 21 14 22 16 23 15 24 20 25
REMARK SMILES IDX 21 26 22 27 23 29 24 30 28 31 25 32 27 33 26 34
REMARK H PARENT 18 6 6 13 6 14 22 28
ROOT
ATOM     1   C14 UNL     1       1.240  -1.865  -0.014  1.00  0.00     0.127 A   
ATOM     2   C15 UNL     1       1.142  -2.070   1.347  1.00  0.00     0.046 A   
ATOM     3   N2  UNL     1       0.547  -3.300   1.457  1.00  0.00    -0.209 N   
ATOM     4   N4  UNL     1       0.384  -3.862   0.249  1.00  0.00    -0.076 NA  
ATOM     5   N5  UNL     1       0.796  -2.992  -0.660  1.00  0.00    -0.132 NA  
ATOM     6   H20 UNL     1       1.313  -1.443   2.211  1.00  0.00     0.083 HD  
ENDROOT
BRANCH   1   7
ATOM     7   C5  UNL     1       1.572  -0.642  -0.821  1.00  0.00     0.120 C   
BRANCH   7   8
ATOM     8   C2  UNL     1       2.980  -0.003  -0.546  1.00  0.00     0.010 C   
ATOM     9   C1  UNL     1       3.245   1.158  -1.532  1.00  0.00     0.017 C   
ATOM     10  C3  UNL     1       4.080  -1.063  -0.790  1.00  0.00     0.017 C   
ATOM     11  C4  UNL     1       3.153   0.549   0.882  1.00  0.00     0.017 C   
ENDBRANCH   7   8
BRANCH   7  12
ATOM     12  N1  UNL     1       0.458   0.377  -0.701  1.00  0.00     0.250 N   
ATOM     13  H11 UNL     1      -0.327  -0.013  -0.141  1.00  0.00     0.199 HD  
ATOM     14  H12 UNL     1       0.750   1.197  -0.168  1.00  0.00     0.199 HD  
BRANCH  12  15
ATOM     15  C6  UNL     1      -0.159   0.807  -1.988  1.00  0.00     0.164 C   
BRANCH  15  16
ATOM     16  C7  UNL     1      -1.126   1.942  -1.785  1.00  0.00    -0.002 A   
ATOM     17  C8  UNL     1      -2.519   1.718  -1.878  1.00  0.00     0.012 A   
ATOM     18  C12 UNL     1      -0.655   3.230  -1.467  1.00  0.00     0.045 A   
ATOM     19  C9  UNL     1      -3.435   2.752  -1.654  1.00  0.00     0.037 A   
ATOM     20  C11 UNL     1      -1.584   4.225  -1.243  1.00  0.00     0.109 A   
ATOM     21  C10 UNL     1      -2.935   3.994  -1.336  1.00  0.00     0.108 A   
ATOM     22  O1  UNL     1      -1.298   5.510  -0.907  1.00  0.00    -0.316 OA  
ATOM     23  O2  UNL     1      -3.669   5.107  -1.076  1.00  0.00    -0.316 OA  
ATOM     24  C13 UNL     1      -2.628   6.072  -0.813  1.00  0.00     0.337 C   
ENDBRANCH  15  16
ENDBRANCH  12  15
ENDBRANCH   7  12
ENDBRANCH   1   7
BRANCH   3  25
ATOM     25  C16 UNL     1      -0.168  -3.820   2.605  1.00  0.00     0.170 C   
BRANCH  25  26
ATOM     26  C17 UNL     1      -1.686  -3.557   2.523  1.00  0.00     0.165 C   
BRANCH  26  27
ATOM     27  O3  UNL     1      -2.303  -3.991   3.735  1.00  0.00    -0.387 OA  
ATOM     28  H24 UNL     1      -2.566  -4.923   3.622  1.00  0.00     0.211 HD  
ENDBRANCH  26  27
BRANCH  26  29
ATOM     29  C18 UNL     1      -1.987  -2.085   2.319  1.00  0.00     0.000 A   
ATOM     30  C19 UNL     1      -2.079  -1.175   3.376  1.00  0.00     0.009 A   
ATOM     31  C22 UNL     1      -2.045  -1.563   1.027  1.00  0.00     0.117 A   
ATOM     32  C20 UNL     1      -2.216   0.184   3.109  1.00  0.00     0.020 A   
ATOM     33  N3  UNL     1      -2.048  -0.239   0.734  1.00  0.00    -0.264 NA  
ATOM     34  C21 UNL     1      -2.197   0.601   1.788  1.00  0.00     0.111 A   
ENDBRANCH  26  29
ENDBRANCH  25  26
ENDBRANCH   3  25
TORSDOF 9
