REMARK SMILES Oc1c(F)cc(F)cc1Cn1cc([C@@H]([NH2+]Cc2ccc3c(c2)OCO3)C2CCCCC2)nn1
REMARK SMILES IDX 11 1 12 2 13 3 32 4 33 5 10 7 9 8 2 9 3 10 5 11 8 12 6 13
REMARK SMILES IDX 4 14 7 15 1 16 14 18 15 19 16 22 17 23 18 24 22 25 19 26
REMARK SMILES IDX 21 27 20 28 23 29 25 30 24 31 26 32 27 33 31 34 28 35 30 36
REMARK SMILES IDX 29 37
REMARK H PARENT 12 6 1 17 15 20 15 21
ROOT
ATOM     1   N1  UNL     1       2.829   2.557  -0.238  1.00  0.00    -0.208 N   
ATOM     2   C8  UNL     1       2.320   2.021   0.913  1.00  0.00     0.046 A   
ATOM     3   C9  UNL     1       1.609   0.923   0.485  1.00  0.00     0.127 A   
ATOM     4   N3  UNL     1       1.711   0.826  -0.881  1.00  0.00    -0.132 NA  
ATOM     5   N4  UNL     1       2.457   1.830  -1.311  1.00  0.00    -0.076 NA  
ATOM     6   H6  UNL     1       2.499   2.466   1.883  1.00  0.00     0.083 HD  
ENDROOT
BRANCH   1   7
ATOM     7   C7  UNL     1       3.680   3.725  -0.390  1.00  0.00     0.172 C   
BRANCH   7   8
ATOM     8   C6  UNL     1       2.868   4.950  -0.714  1.00  0.00     0.007 A   
ATOM     9   C1  UNL     1       2.256   5.710   0.287  1.00  0.00     0.112 A   
ATOM     10  C2  UNL     1       1.501   6.841  -0.032  1.00  0.00     0.156 A   
ATOM     11  C3  UNL     1       1.331   7.239  -1.348  1.00  0.00     0.081 A   
ATOM     12  C5  UNL     1       2.686   5.351  -2.049  1.00  0.00     0.047 A   
ATOM     13  C4  UNL     1       1.927   6.484  -2.348  1.00  0.00     0.126 A   
ATOM     14  F1  UNL     1       0.928   7.541   0.958  1.00  0.00    -0.204 F   
ATOM     15  F2  UNL     1       1.767   6.843  -3.628  1.00  0.00    -0.207 F   
BRANCH   9  16
ATOM     16  O1  UNL     1       2.395   5.335   1.596  1.00  0.00    -0.358 OA  
ATOM     17  H1  UNL     1       1.990   6.046   2.136  1.00  0.00     0.218 HD  
ENDBRANCH   9  16
ENDBRANCH   7   8
ENDBRANCH   1   7
BRANCH   3  18
ATOM     18  C10 UNL     1       0.774  -0.071   1.235  1.00  0.00     0.117 C   
BRANCH  18  19
ATOM     19  N2  UNL     1      -0.282  -0.628   0.331  1.00  0.00     0.249 N   
ATOM     20  H8  UNL     1      -0.668  -1.507   0.679  1.00  0.00     0.199 HD  
ATOM     21  H9  UNL     1       0.180  -0.846  -0.565  1.00  0.00     0.199 HD  
BRANCH  19  22
ATOM     22  C11 UNL     1      -1.411   0.293   0.022  1.00  0.00     0.164 C   
BRANCH  22  23
ATOM     23  C12 UNL     1      -2.354  -0.352  -0.954  1.00  0.00    -0.002 A   
ATOM     24  C13 UNL     1      -2.112  -0.252  -2.345  1.00  0.00     0.012 A   
ATOM     25  C17 UNL     1      -3.444  -1.109  -0.491  1.00  0.00     0.045 A   
ATOM     26  C14 UNL     1      -2.951  -0.887  -3.266  1.00  0.00     0.037 A   
ATOM     27  C16 UNL     1      -4.250  -1.723  -1.427  1.00  0.00     0.109 A   
ATOM     28  C15 UNL     1      -4.012  -1.616  -2.775  1.00  0.00     0.108 A   
ATOM     29  O2  UNL     1      -5.338  -2.488  -1.151  1.00  0.00    -0.316 OA  
ATOM     30  O3  UNL     1      -4.922  -2.297  -3.517  1.00  0.00    -0.316 OA  
ATOM     31  C18 UNL     1      -5.770  -2.842  -2.484  1.00  0.00     0.337 C   
ENDBRANCH  22  23
ENDBRANCH  19  22
ENDBRANCH  18  19
BRANCH  18  32
ATOM     32  C19 UNL     1       1.644  -1.194   1.873  1.00  0.00     0.043 C   
ATOM     33  C20 UNL     1       2.302  -2.178   0.884  1.00  0.00     0.010 C   
ATOM     34  C24 UNL     1       0.941  -1.933   3.031  1.00  0.00     0.010 C   
ATOM     35  C21 UNL     1       1.446  -3.383   0.502  1.00  0.00     0.001 C   
ATOM     36  C23 UNL     1       0.112  -3.150   2.630  1.00  0.00     0.001 C   
ATOM     37  C22 UNL     1       0.889  -4.096   1.726  1.00  0.00     0.000 C   
ENDBRANCH  18  32
ENDBRANCH   3  18
TORSDOF 8
