REMARK SMILES CCc1nc(C)c(Cn2cc([C@@H]([NH2+]Cc3ccc4c(c3)OCO4)C3CCCC3)nn2)o1
REMARK SMILES IDX 9 1 10 2 11 3 29 4 30 5 8 7 7 8 3 9 4 10 31 11 5 12 6 13
REMARK SMILES IDX 2 14 1 15 12 16 13 17 14 20 15 21 16 22 20 23 17 24 19 25
REMARK SMILES IDX 18 26 21 27 23 28 22 29 24 30 25 31 28 32 26 33 27 34
REMARK H PARENT 10 6 13 18 13 19
ROOT
ATOM     1   N2  UNL     1      -2.034   0.566  -2.231  1.00  0.00    -0.206 N   
ATOM     2   C8  UNL     1      -0.963  -0.286  -2.199  1.00  0.00     0.046 A   
ATOM     3   C9  UNL     1      -0.780  -0.542  -0.858  1.00  0.00     0.127 A   
ATOM     4   N4  UNL     1      -1.722   0.149  -0.137  1.00  0.00    -0.132 NA  
ATOM     5   N5  UNL     1      -2.480   0.823  -0.986  1.00  0.00    -0.076 NA  
ATOM     6   H11 UNL     1      -0.446  -0.595  -3.097  1.00  0.00     0.083 HD  
ENDROOT
BRANCH   1   7
ATOM     7   C7  UNL     1      -2.645   1.200  -3.386  1.00  0.00     0.197 C   
BRANCH   7   8
ATOM     8   C6  UNL     1      -1.828   2.355  -3.805  1.00  0.00     0.102 A   
ATOM     9   C3  UNL     1      -0.364   3.388  -5.008  1.00  0.00     0.147 A   
ATOM     10  N1  UNL     1      -0.727   4.287  -4.118  1.00  0.00    -0.231 NA  
ATOM     11  O3  UNL     1      -0.983   2.175  -4.867  1.00  0.00    -0.296 OA  
ATOM     12  C4  UNL     1      -1.676   3.650  -3.356  1.00  0.00     0.068 A   
ATOM     13  C5  UNL     1      -2.348   4.346  -2.238  1.00  0.00     0.069 C   
BRANCH   9  14
ATOM     14  C2  UNL     1       0.618   3.515  -6.113  1.00  0.00     0.080 C   
ATOM     15  C1  UNL     1       2.000   3.054  -5.680  1.00  0.00     0.013 C   
ENDBRANCH   9  14
ENDBRANCH   7   8
ENDBRANCH   1   7
BRANCH   3  16
ATOM     16  C10 UNL     1       0.265  -1.329  -0.136  1.00  0.00     0.117 C   
BRANCH  16  17
ATOM     17  N3  UNL     1       0.570  -0.676   1.191  1.00  0.00     0.249 N   
ATOM     18  H13 UNL     1       1.050  -1.321   1.827  1.00  0.00     0.199 HD  
ATOM     19  H14 UNL     1      -0.337  -0.457   1.630  1.00  0.00     0.199 HD  
BRANCH  17  20
ATOM     20  C11 UNL     1       1.341   0.596   1.113  1.00  0.00     0.164 C   
BRANCH  20  21
ATOM     21  C12 UNL     1       1.531   1.179   2.485  1.00  0.00    -0.002 A   
ATOM     22  C13 UNL     1       2.709   0.915   3.222  1.00  0.00     0.012 A   
ATOM     23  C17 UNL     1       0.508   1.950   3.065  1.00  0.00     0.045 A   
ATOM     24  C14 UNL     1       2.875   1.421   4.515  1.00  0.00     0.037 A   
ATOM     25  C16 UNL     1       0.704   2.433   4.343  1.00  0.00     0.109 A   
ATOM     26  C15 UNL     1       1.854   2.177   5.047  1.00  0.00     0.108 A   
ATOM     27  O1  UNL     1      -0.179   3.188   5.046  1.00  0.00    -0.316 OA  
ATOM     28  O2  UNL     1       1.841   2.742   6.282  1.00  0.00    -0.316 OA  
ATOM     29  C18 UNL     1       0.558   3.403   6.271  1.00  0.00     0.337 C   
ENDBRANCH  20  21
ENDBRANCH  17  20
ENDBRANCH  16  17
BRANCH  16  30
ATOM     30  C19 UNL     1      -0.106  -2.798   0.139  1.00  0.00     0.043 C   
ATOM     31  C20 UNL     1      -1.359  -3.043   0.984  1.00  0.00     0.010 C   
ATOM     32  C23 UNL     1      -0.390  -3.638  -1.108  1.00  0.00     0.010 C   
ATOM     33  C21 UNL     1      -1.689  -4.517   0.757  1.00  0.00     0.001 C   
ATOM     34  C22 UNL     1      -0.990  -4.920  -0.543  1.00  0.00     0.001 C   
ENDBRANCH  16  30
ENDBRANCH   3  16
TORSDOF 8
