REMARK SMILES CC(C)(C)[C@H]([NH2+]Cc1ccc2c(c1)OCO2)c1cn(CCc2ccc[nH]2)nn1
REMARK SMILES IDX 17 1 18 2 19 3 27 4 28 5 5 7 2 8 1 9 3 10 4 11 6 12 7 15
REMARK SMILES IDX 8 16 9 17 13 18 10 19 12 20 11 21 14 22 16 23 15 24 20 25
REMARK SMILES IDX 21 26 22 27 23 28 26 29 24 30 25 31
REMARK H PARENT 18 6 6 13 6 14 26 32
ROOT
ATOM     1   C14 UNL     1      -1.564  -1.391  -0.295  1.00  0.00     0.127 A   
ATOM     2   C15 UNL     1      -1.086  -1.292  -1.582  1.00  0.00     0.045 A   
ATOM     3   N2  UNL     1      -2.211  -1.331  -2.355  1.00  0.00    -0.212 N   
ATOM     4   N4  UNL     1      -3.315  -1.456  -1.596  1.00  0.00    -0.076 NA  
ATOM     5   N5  UNL     1      -2.932  -1.487  -0.329  1.00  0.00    -0.132 NA  
ATOM     6   H20 UNL     1      -0.097  -1.165  -2.001  1.00  0.00     0.083 HD  
ENDROOT
BRANCH   1   7
ATOM     7   C5  UNL     1      -0.857  -1.297   1.021  1.00  0.00     0.120 C   
BRANCH   7   8
ATOM     8   C2  UNL     1      -0.562  -2.683   1.696  1.00  0.00     0.010 C   
ATOM     9   C1  UNL     1       0.250  -3.578   0.731  1.00  0.00     0.017 C   
ATOM     10  C3  UNL     1      -1.842  -3.442   2.098  1.00  0.00     0.017 C   
ATOM     11  C4  UNL     1       0.303  -2.489   2.963  1.00  0.00     0.017 C   
ENDBRANCH   7   8
BRANCH   7  12
ATOM     12  N1  UNL     1      -1.672  -0.419   1.951  1.00  0.00     0.250 N   
ATOM     13  H11 UNL     1      -2.631  -0.793   1.928  1.00  0.00     0.199 HD  
ATOM     14  H12 UNL     1      -1.338  -0.489   2.913  1.00  0.00     0.199 HD  
BRANCH  12  15
ATOM     15  C6  UNL     1      -1.760   1.028   1.582  1.00  0.00     0.164 C   
BRANCH  15  16
ATOM     16  C7  UNL     1      -0.445   1.744   1.706  1.00  0.00    -0.002 A   
ATOM     17  C8  UNL     1       0.083   2.065   2.980  1.00  0.00     0.012 A   
ATOM     18  C12 UNL     1       0.287   2.073   0.552  1.00  0.00     0.045 A   
ATOM     19  C9  UNL     1       1.323   2.700   3.104  1.00  0.00     0.037 A   
ATOM     20  C11 UNL     1       1.506   2.698   0.709  1.00  0.00     0.109 A   
ATOM     21  C10 UNL     1       2.010   3.002   1.949  1.00  0.00     0.108 A   
ATOM     22  O1  UNL     1       2.337   3.075  -0.297  1.00  0.00    -0.316 OA  
ATOM     23  O2  UNL     1       3.221   3.613   1.881  1.00  0.00    -0.316 OA  
ATOM     24  C13 UNL     1       3.413   3.687   0.451  1.00  0.00     0.337 C   
ENDBRANCH  15  16
ENDBRANCH  12  15
ENDBRANCH   7  12
ENDBRANCH   1   7
BRANCH   3  25
ATOM     25  C16 UNL     1      -2.307  -1.187  -3.793  1.00  0.00     0.140 C   
BRANCH  25  26
ATOM     26  C17 UNL     1      -2.997   0.109  -4.223  1.00  0.00     0.072 C   
BRANCH  26  27
ATOM     27  C18 UNL     1      -2.331   1.335  -3.676  1.00  0.00     0.008 A   
ATOM     28  C19 UNL     1      -1.044   1.815  -3.825  1.00  0.00     0.020 A   
ATOM     29  N3  UNL     1      -3.015   2.231  -2.886  1.00  0.00    -0.324 N   
ATOM     30  C20 UNL     1      -0.944   3.011  -3.075  1.00  0.00     0.017 A   
ATOM     31  C21 UNL     1      -2.172   3.238  -2.498  1.00  0.00     0.071 A   
ATOM     32  H28 UNL     1      -3.997   2.166  -2.644  1.00  0.00     0.152 HD  
ENDBRANCH  26  27
ENDBRANCH  25  26
ENDBRANCH   3  25
TORSDOF 8
