REMARK SMILES CC(C)[C@H]([NH2+]Cc1ccc2c(c1)OCO2)c1cn(-c2cccc(N(C)C)c2)nn1
REMARK SMILES IDX 16 1 17 2 18 3 28 4 29 5 4 6 2 7 1 8 3 9 5 10 6 13 7 14 8 15
REMARK SMILES IDX 12 16 9 17 11 18 10 19 13 20 15 21 14 22 19 23 20 24 27 25
REMARK SMILES IDX 21 26 23 27 22 28 24 29 25 30 26 31
REMARK H PARENT 5 11 5 12
ROOT
ATOM     1   C13 UNL     1       0.823  -0.428   0.134  1.00  0.00     0.127 A   
ATOM     2   C14 UNL     1      -0.154  -0.075  -0.769  1.00  0.00     0.135 A   
ATOM     3   N2  UNL     1      -1.196   0.413  -0.002  1.00  0.00    -0.181 N   
ATOM     4   N4  UNL     1      -0.826   0.376   1.305  1.00  0.00    -0.071 NA  
ATOM     5   N5  UNL     1       0.390  -0.137   1.396  1.00  0.00    -0.131 NA  
ENDROOT
BRANCH   1   6
ATOM     6   C4  UNL     1       2.198  -0.983  -0.059  1.00  0.00     0.117 C   
BRANCH   6   7
ATOM     7   C2  UNL     1       2.258  -2.532  -0.103  1.00  0.00     0.037 C   
ATOM     8   C1  UNL     1       1.529  -3.093  -1.330  1.00  0.00     0.014 C   
ATOM     9   C3  UNL     1       1.738  -3.217   1.166  1.00  0.00     0.014 C   
ENDBRANCH   6   7
BRANCH   6  10
ATOM     10  N1  UNL     1       3.106  -0.504   1.048  1.00  0.00     0.249 N   
ATOM     11  H9  UNL     1       3.934  -1.101   1.143  1.00  0.00     0.199 HD  
ATOM     12  H10 UNL     1       2.579  -0.599   1.930  1.00  0.00     0.199 HD  
BRANCH  10  13
ATOM     13  C5  UNL     1       3.540   0.917   0.949  1.00  0.00     0.164 C   
BRANCH  13  14
ATOM     14  C6  UNL     1       4.344   1.303   2.157  1.00  0.00    -0.002 A   
ATOM     15  C7  UNL     1       3.694   1.800   3.312  1.00  0.00     0.012 A   
ATOM     16  C11 UNL     1       5.737   1.120   2.170  1.00  0.00     0.045 A   
ATOM     17  C8  UNL     1       4.421   2.122   4.463  1.00  0.00     0.037 A   
ATOM     18  C10 UNL     1       6.423   1.446   3.321  1.00  0.00     0.109 A   
ATOM     19  C9  UNL     1       5.785   1.933   4.435  1.00  0.00     0.108 A   
ATOM     20  O1  UNL     1       7.765   1.328   3.501  1.00  0.00    -0.316 OA  
ATOM     21  O2  UNL     1       6.645   2.187   5.456  1.00  0.00    -0.316 OA  
ATOM     22  C12 UNL     1       7.905   1.823   4.853  1.00  0.00     0.337 C   
ENDBRANCH  13  14
ENDBRANCH  10  13
ENDBRANCH   6  10
ENDBRANCH   1   6
BRANCH   3  23
ATOM     23  C15 UNL     1      -2.456   0.910  -0.415  1.00  0.00     0.059 A   
ATOM     24  C16 UNL     1      -3.364   1.371   0.545  1.00  0.00     0.026 A   
ATOM     25  C22 UNL     1      -2.802   0.958  -1.774  1.00  0.00     0.049 A   
ATOM     26  C17 UNL     1      -4.594   1.883   0.141  1.00  0.00     0.004 A   
ATOM     27  C19 UNL     1      -4.042   1.470  -2.200  1.00  0.00     0.030 A   
ATOM     28  C18 UNL     1      -4.925   1.937  -1.217  1.00  0.00     0.023 A   
BRANCH  27  29
ATOM     29  N3  UNL     1      -4.321   1.507  -3.578  1.00  0.00    -0.337 N   
ATOM     30  C20 UNL     1      -4.491   0.169  -4.159  1.00  0.00     0.129 C   
ATOM     31  C21 UNL     1      -5.322   2.476  -4.031  1.00  0.00     0.129 C   
ENDBRANCH  27  29
ENDBRANCH   3  23
TORSDOF 7
