REMARK SMILES c1cc(Cn2cc([C@@H]([NH2+]Cc3ccc4c(c3)OCO4)C3CCCCC3)nn2)c[nH]1
REMARK SMILES IDX 5 1 6 2 7 3 26 4 27 5 4 7 3 8 1 9 2 10 29 11 28 12 8 14 9 15
REMARK SMILES IDX 10 18 11 19 12 20 16 21 13 22 15 23 14 24 17 25 19 26 18 27
REMARK SMILES IDX 20 28 21 29 25 30 22 31 24 32 23 33
REMARK H PARENT 6 6 29 13 9 16 9 17
ROOT
ATOM     1   N1  UNL     1       0.502  -1.607  -2.091  1.00  0.00    -0.208 N   
ATOM     2   C5  UNL     1       0.341  -0.271  -1.833  1.00  0.00     0.046 A   
ATOM     3   C6  UNL     1       1.032  -0.074  -0.659  1.00  0.00     0.127 A   
ATOM     4   N3  UNL     1       1.579  -1.265  -0.253  1.00  0.00    -0.132 NA  
ATOM     5   N4  UNL     1       1.259  -2.191  -1.141  1.00  0.00    -0.076 NA  
ATOM     6   H5  UNL     1      -0.243   0.372  -2.476  1.00  0.00     0.083 HD  
ENDROOT
BRANCH   1   7
ATOM     7   C4  UNL     1       0.009  -2.370  -3.227  1.00  0.00     0.170 C   
BRANCH   7   8
ATOM     8   C3  UNL     1      -1.482  -2.449  -3.206  1.00  0.00    -0.013 A   
ATOM     9   C1  UNL     1      -3.596  -3.009  -2.627  1.00  0.00     0.072 A   
ATOM     10  C2  UNL     1      -2.276  -3.204  -2.296  1.00  0.00     0.022 A   
ATOM     11  N5  UNL     1      -3.644  -2.175  -3.711  1.00  0.00    -0.327 N   
ATOM     12  C22 UNL     1      -2.367  -1.825  -4.068  1.00  0.00     0.076 A   
ATOM     13  H28 UNL     1      -4.490  -1.875  -4.181  1.00  0.00     0.152 HD  
ENDBRANCH   7   8
ENDBRANCH   1   7
BRANCH   3  14
ATOM     14  C7  UNL     1       1.210   1.134   0.199  1.00  0.00     0.117 C   
BRANCH  14  15
ATOM     15  N2  UNL     1       1.285   0.705   1.652  1.00  0.00     0.249 N   
ATOM     16  H7  UNL     1       2.060   1.174   2.130  1.00  0.00     0.199 HD  
ATOM     17  H8  UNL     1       1.535  -0.298   1.637  1.00  0.00     0.199 HD  
BRANCH  15  18
ATOM     18  C8  UNL     1       0.046   0.874   2.458  1.00  0.00     0.164 C   
BRANCH  18  19
ATOM     19  C9  UNL     1      -1.117   0.043   1.994  1.00  0.00    -0.002 A   
ATOM     20  C10 UNL     1      -2.232   0.655   1.372  1.00  0.00     0.012 A   
ATOM     21  C14 UNL     1      -1.110  -1.351   2.178  1.00  0.00     0.045 A   
ATOM     22  C11 UNL     1      -3.328  -0.105   0.949  1.00  0.00     0.037 A   
ATOM     23  C13 UNL     1      -2.210  -2.070   1.756  1.00  0.00     0.109 A   
ATOM     24  C12 UNL     1      -3.289  -1.464   1.162  1.00  0.00     0.108 A   
ATOM     25  O1  UNL     1      -2.371  -3.413   1.879  1.00  0.00    -0.316 OA  
ATOM     26  O2  UNL     1      -4.269  -2.349   0.842  1.00  0.00    -0.316 OA  
ATOM     27  C15 UNL     1      -3.696  -3.582   1.327  1.00  0.00     0.337 C   
ENDBRANCH  18  19
ENDBRANCH  15  18
ENDBRANCH  14  15
BRANCH  14  28
ATOM     28  C16 UNL     1       2.472   1.974  -0.135  1.00  0.00     0.043 C   
ATOM     29  C17 UNL     1       2.352   2.657  -1.511  1.00  0.00     0.010 C   
ATOM     30  C21 UNL     1       3.797   1.189  -0.049  1.00  0.00     0.010 C   
ATOM     31  C18 UNL     1       3.555   3.552  -1.802  1.00  0.00     0.001 C   
ATOM     32  C20 UNL     1       4.999   2.086  -0.344  1.00  0.00     0.001 C   
ATOM     33  C19 UNL     1       4.867   2.781  -1.695  1.00  0.00     0.000 C   
ENDBRANCH  14  28
ENDBRANCH   3  14
TORSDOF 7
