REMARK SMILES CC(C)c1ocnc1Cn1cc([C@@H]([NH2+]Cc2ccc3c(c2)OCO3)C2CCCCC2)nn1
REMARK SMILES IDX 10 1 11 2 12 3 31 4 32 5 9 7 8 8 4 9 5 10 6 11 7 12 2 13
REMARK SMILES IDX 1 14 3 15 13 16 14 17 15 20 16 21 17 22 21 23 18 24 20 25
REMARK SMILES IDX 19 26 22 27 24 28 23 29 25 30 26 31 30 32 27 33 29 34 28 35
REMARK H PARENT 11 6 14 18 14 19
ROOT
ATOM     1   N2  UNL     1       0.402  -1.070  -3.039  1.00  0.00    -0.206 N   
ATOM     2   C8  UNL     1       1.545  -0.792  -2.338  1.00  0.00     0.046 A   
ATOM     3   C9  UNL     1       1.151   0.150  -1.416  1.00  0.00     0.127 A   
ATOM     4   N4  UNL     1      -0.178   0.437  -1.606  1.00  0.00    -0.132 NA  
ATOM     5   N5  UNL     1      -0.621  -0.304  -2.609  1.00  0.00    -0.076 NA  
ATOM     6   H11 UNL     1       2.478  -1.302  -2.539  1.00  0.00     0.083 HD  
ENDROOT
BRANCH   1   7
ATOM     7   C7  UNL     1       0.222  -2.007  -4.134  1.00  0.00     0.192 C   
BRANCH   7   8
ATOM     8   C6  UNL     1       0.224  -3.397  -3.616  1.00  0.00     0.089 A   
ATOM     9   C4  UNL     1      -0.836  -4.196  -3.231  1.00  0.00     0.086 A   
ATOM     10  O1  UNL     1      -0.323  -5.404  -2.842  1.00  0.00    -0.301 OA  
ATOM     11  C5  UNL     1       1.020  -5.268  -3.010  1.00  0.00     0.247 A   
ATOM     12  N1  UNL     1       1.406  -4.092  -3.454  1.00  0.00    -0.232 NA  
BRANCH   9  13
ATOM     13  C2  UNL     1      -2.314  -4.020  -3.166  1.00  0.00     0.039 C   
ATOM     14  C1  UNL     1      -2.847  -4.292  -1.758  1.00  0.00     0.015 C   
ATOM     15  C3  UNL     1      -3.012  -4.905  -4.197  1.00  0.00     0.015 C   
ENDBRANCH   9  13
ENDBRANCH   7   8
ENDBRANCH   1   7
BRANCH   3  16
ATOM     16  C10 UNL     1       1.912   0.851  -0.335  1.00  0.00     0.117 C   
BRANCH  16  17
ATOM     17  N3  UNL     1       1.215   2.129   0.048  1.00  0.00     0.249 N   
ATOM     18  H13 UNL     1       1.458   2.438   0.993  1.00  0.00     0.199 HD  
ATOM     19  H14 UNL     1       0.204   1.918   0.068  1.00  0.00     0.199 HD  
BRANCH  17  20
ATOM     20  C11 UNL     1       1.406   3.263  -0.897  1.00  0.00     0.164 C   
BRANCH  20  21
ATOM     21  C12 UNL     1       0.646   4.472  -0.427  1.00  0.00    -0.002 A   
ATOM     22  C13 UNL     1       1.253   5.400   0.452  1.00  0.00     0.012 A   
ATOM     23  C17 UNL     1      -0.691   4.658  -0.817  1.00  0.00     0.045 A   
ATOM     24  C14 UNL     1       0.542   6.508   0.928  1.00  0.00     0.037 A   
ATOM     25  C16 UNL     1      -1.362   5.762  -0.333  1.00  0.00     0.109 A   
ATOM     26  C15 UNL     1      -0.763   6.661   0.516  1.00  0.00     0.108 A   
ATOM     27  O2  UNL     1      -2.649   6.094  -0.617  1.00  0.00    -0.316 OA  
ATOM     28  O3  UNL     1      -1.598   7.671   0.875  1.00  0.00    -0.316 OA  
ATOM     29  C18 UNL     1      -2.791   7.318   0.140  1.00  0.00     0.337 C   
ENDBRANCH  20  21
ENDBRANCH  17  20
ENDBRANCH  16  17
BRANCH  16  30
ATOM     30  C19 UNL     1       2.118  -0.049   0.913  1.00  0.00     0.043 C   
ATOM     31  C20 UNL     1       3.172   0.540   1.871  1.00  0.00     0.010 C   
ATOM     32  C24 UNL     1       0.817  -0.365   1.677  1.00  0.00     0.010 C   
ATOM     33  C21 UNL     1       3.422  -0.375   3.069  1.00  0.00     0.001 C   
ATOM     34  C23 UNL     1       1.076  -1.278   2.875  1.00  0.00     0.001 C   
ATOM     35  C22 UNL     1       2.129  -0.693   3.812  1.00  0.00     0.000 C   
ENDBRANCH  16  30
ENDBRANCH   3  16
TORSDOF 8
