REMARK SMILES CC(C)[C@H]([NH2+]Cc1ccc2c(c1)OCO2)c1cn(CCc2cccnc2N(C)C)nn1
REMARK SMILES IDX 16 1 17 2 18 3 30 4 31 5 4 7 2 8 1 9 3 10 5 11 6 14 7 15
REMARK SMILES IDX 8 16 12 17 9 18 11 19 10 20 13 21 15 22 14 23 19 24 20 25
REMARK SMILES IDX 21 26 22 27 26 28 23 29 25 30 24 31 27 32 28 33 29 34
REMARK H PARENT 17 6 5 12 5 13
ROOT
ATOM     1   C13 UNL     1      -2.556  -0.275   0.110  1.00  0.00     0.127 A   
ATOM     2   C14 UNL     1      -1.709   0.784  -0.120  1.00  0.00     0.045 A   
ATOM     3   N2  UNL     1      -2.219   1.788   0.652  1.00  0.00    -0.212 N   
ATOM     4   N5  UNL     1      -3.320   1.379   1.311  1.00  0.00    -0.076 NA  
ATOM     5   N6  UNL     1      -3.542   0.117   0.981  1.00  0.00    -0.132 NA  
ATOM     6   H18 UNL     1      -0.812   0.909  -0.711  1.00  0.00     0.083 HD  
ENDROOT
BRANCH   1   7
ATOM     7   C4  UNL     1      -2.508  -1.687  -0.374  1.00  0.00     0.117 C   
BRANCH   7   8
ATOM     8   C2  UNL     1      -3.195  -1.857  -1.757  1.00  0.00     0.037 C   
ATOM     9   C1  UNL     1      -4.715  -1.667  -1.730  1.00  0.00     0.014 C   
ATOM     10  C3  UNL     1      -2.856  -3.210  -2.394  1.00  0.00     0.014 C   
ENDBRANCH   7   8
BRANCH   7  11
ATOM     11  N1  UNL     1      -3.134  -2.618   0.638  1.00  0.00     0.249 N   
ATOM     12  H9  UNL     1      -4.050  -2.210   0.871  1.00  0.00     0.199 HD  
ATOM     13  H10 UNL     1      -3.301  -3.540   0.230  1.00  0.00     0.199 HD  
BRANCH  11  14
ATOM     14  C5  UNL     1      -2.397  -2.781   1.926  1.00  0.00     0.164 C   
BRANCH  14  15
ATOM     15  C6  UNL     1      -1.085  -3.498   1.769  1.00  0.00    -0.002 A   
ATOM     16  C7  UNL     1      -1.051  -4.899   1.567  1.00  0.00     0.012 A   
ATOM     17  C11 UNL     1       0.119  -2.773   1.796  1.00  0.00     0.045 A   
ATOM     18  C8  UNL     1       0.166  -5.568   1.393  1.00  0.00     0.037 A   
ATOM     19  C10 UNL     1       1.300  -3.464   1.625  1.00  0.00     0.109 A   
ATOM     20  C9  UNL     1       1.323  -4.822   1.427  1.00  0.00     0.108 A   
ATOM     21  O1  UNL     1       2.544  -2.918   1.628  1.00  0.00    -0.316 OA  
ATOM     22  O2  UNL     1       2.584  -5.302   1.278  1.00  0.00    -0.316 OA  
ATOM     23  C12 UNL     1       3.360  -4.092   1.415  1.00  0.00     0.337 C   
ENDBRANCH  14  15
ENDBRANCH  11  14
ENDBRANCH   7  11
ENDBRANCH   1   7
BRANCH   3  24
ATOM     24  C15 UNL     1      -1.702   3.129   0.826  1.00  0.00     0.139 C   
BRANCH  24  25
ATOM     25  C16 UNL     1      -0.945   3.314   2.144  1.00  0.00     0.060 C   
BRANCH  25  26
ATOM     26  C17 UNL     1       0.211   2.359   2.364  1.00  0.00    -0.006 A   
ATOM     27  C18 UNL     1       0.190   1.522   3.491  1.00  0.00     0.009 A   
ATOM     28  C21 UNL     1       1.300   2.253   1.480  1.00  0.00     0.123 A   
ATOM     29  C19 UNL     1       1.214   0.608   3.699  1.00  0.00     0.021 A   
ATOM     30  N3  UNL     1       2.269   1.328   1.661  1.00  0.00    -0.241 NA  
ATOM     31  C20 UNL     1       2.220   0.544   2.759  1.00  0.00     0.113 A   
BRANCH  28  32
ATOM     32  N4  UNL     1       1.395   3.134   0.373  1.00  0.00    -0.322 N   
ATOM     33  C22 UNL     1       2.104   2.506  -0.752  1.00  0.00     0.131 C   
ATOM     34  C23 UNL     1       2.073   4.366   0.813  1.00  0.00     0.131 C   
ENDBRANCH  28  32
ENDBRANCH  25  26
ENDBRANCH  24  25
ENDBRANCH   3  24
TORSDOF 9
