REMARK SMILES CC(C)[C@H]([NH2+]Cc1ccc2c(c1)OCO2)c1cn([C@@H](CO)c2cccc(Cl)c2)nn1
REMARK SMILES IDX 16 1 17 2 18 3 29 4 30 5 4 7 2 8 1 9 3 10 5 11 6 14 7 15
REMARK SMILES IDX 8 16 12 17 9 18 11 19 10 20 13 21 15 22 14 23 19 24 20 25
REMARK SMILES IDX 21 26 22 28 23 29 28 30 24 31 26 32 25 33 27 34
REMARK H PARENT 17 6 5 12 5 13 21 27
ROOT
ATOM     1   C13 UNL     1       0.619  -1.212  -0.231  1.00  0.00     0.127 A   
ATOM     2   C14 UNL     1       1.624  -0.485   0.365  1.00  0.00     0.046 A   
ATOM     3   N2  UNL     1       2.507  -0.236  -0.652  1.00  0.00    -0.202 N   
ATOM     4   N3  UNL     1       2.084  -0.812  -1.797  1.00  0.00    -0.075 NA  
ATOM     5   N4  UNL     1       0.935  -1.420  -1.548  1.00  0.00    -0.132 NA  
ATOM     6   H18 UNL     1       1.761  -0.081   1.359  1.00  0.00     0.083 HD  
ENDROOT
BRANCH   1   7
ATOM     7   C4  UNL     1      -0.699  -1.660   0.312  1.00  0.00     0.117 C   
BRANCH   7   8
ATOM     8   C2  UNL     1      -0.646  -3.108   0.870  1.00  0.00     0.037 C   
ATOM     9   C1  UNL     1      -1.868  -3.421   1.744  1.00  0.00     0.014 C   
ATOM     10  C3  UNL     1      -0.492  -4.194  -0.202  1.00  0.00     0.014 C   
ENDBRANCH   7   8
BRANCH   7  11
ATOM     11  N1  UNL     1      -1.800  -1.530  -0.716  1.00  0.00     0.249 N   
ATOM     12  H9  UNL     1      -2.678  -1.891  -0.336  1.00  0.00     0.199 HD  
ATOM     13  H10 UNL     1      -1.538  -2.125  -1.512  1.00  0.00     0.199 HD  
BRANCH  11  14
ATOM     14  C5  UNL     1      -2.047  -0.163  -1.277  1.00  0.00     0.164 C   
BRANCH  14  15
ATOM     15  C6  UNL     1      -2.285   0.894  -0.237  1.00  0.00    -0.002 A   
ATOM     16  C7  UNL     1      -3.485   0.914   0.513  1.00  0.00     0.012 A   
ATOM     17  C11 UNL     1      -1.294   1.859   0.018  1.00  0.00     0.045 A   
ATOM     18  C8  UNL     1      -3.690   1.874   1.510  1.00  0.00     0.037 A   
ATOM     19  C10 UNL     1      -1.526   2.786   1.011  1.00  0.00     0.109 A   
ATOM     20  C9  UNL     1      -2.690   2.794   1.737  1.00  0.00     0.108 A   
ATOM     21  O1  UNL     1      -0.668   3.768   1.390  1.00  0.00    -0.316 OA  
ATOM     22  O2  UNL     1      -2.713   3.787   2.663  1.00  0.00    -0.316 OA  
ATOM     23  C12 UNL     1      -1.440   4.426   2.419  1.00  0.00     0.337 C   
ENDBRANCH  14  15
ENDBRANCH  11  14
ENDBRANCH   7  11
ENDBRANCH   1   7
BRANCH   3  24
ATOM     24  C15 UNL     1       3.668   0.651  -0.614  1.00  0.00     0.155 C   
BRANCH  24  25
ATOM     25  C16 UNL     1       4.786   0.222  -1.581  1.00  0.00     0.185 C   
BRANCH  25  26
ATOM     26  O3  UNL     1       6.019   0.830  -1.195  1.00  0.00    -0.394 OA  
ATOM     27  H22 UNL     1       6.688   0.591  -1.860  1.00  0.00     0.210 HD  
ENDBRANCH  25  26
ENDBRANCH  24  25
BRANCH  24  28
ATOM     28  C17 UNL     1       3.191   2.089  -0.798  1.00  0.00    -0.022 A   
ATOM     29  C18 UNL     1       2.700   2.555  -2.031  1.00  0.00     0.006 A   
ATOM     30  C22 UNL     1       3.186   2.968   0.299  1.00  0.00     0.026 A   
ATOM     31  C19 UNL     1       2.220   3.861  -2.161  1.00  0.00     0.002 A   
ATOM     32  C21 UNL     1       2.698   4.269   0.163  1.00  0.00     0.041 A   
ATOM     33  C20 UNL     1       2.215   4.718  -1.063  1.00  0.00     0.020 A   
ATOM     34  CL1 UNL     1       2.680   5.317   1.527  1.00  0.00    -0.084 Cl  
ENDBRANCH  24  28
ENDBRANCH   3  24
TORSDOF 9
