REMARK SMILES CC(C)[C@H]([NH2+]Cc1ccc2c(c1)OCO2)c1cn([C@H](CO)c2cccc(Cl)c2)nn1
REMARK SMILES IDX 16 1 17 2 18 3 29 4 30 5 4 7 2 8 1 9 3 10 5 11 6 14 7 15
REMARK SMILES IDX 8 16 12 17 9 18 11 19 10 20 13 21 15 22 14 23 19 24 20 25
REMARK SMILES IDX 21 26 22 28 23 29 28 30 24 31 26 32 25 33 27 34
REMARK H PARENT 17 6 5 12 5 13 21 27
ROOT
ATOM     1   C13 UNL     1      -0.637  -0.588   0.022  1.00  0.00     0.127 A   
ATOM     2   C14 UNL     1      -1.959  -0.925   0.194  1.00  0.00     0.046 A   
ATOM     3   N2  UNL     1      -2.475   0.104   0.937  1.00  0.00    -0.202 N   
ATOM     4   N3  UNL     1      -1.527   1.033   1.181  1.00  0.00    -0.075 NA  
ATOM     5   N4  UNL     1      -0.398   0.618   0.632  1.00  0.00    -0.132 NA  
ATOM     6   H18 UNL     1      -2.565  -1.764  -0.122  1.00  0.00     0.083 HD  
ENDROOT
BRANCH   1   7
ATOM     7   C4  UNL     1       0.461  -1.261  -0.734  1.00  0.00     0.117 C   
BRANCH   7   8
ATOM     8   C2  UNL     1       1.303  -2.251   0.112  1.00  0.00     0.037 C   
ATOM     9   C1  UNL     1       0.469  -3.452   0.573  1.00  0.00     0.014 C   
ATOM     10  C3  UNL     1       2.002  -1.613   1.318  1.00  0.00     0.014 C   
ENDBRANCH   7   8
BRANCH   7  11
ATOM     11  N1  UNL     1       1.389  -0.223  -1.319  1.00  0.00     0.249 N   
ATOM     12  H9  UNL     1       2.300  -0.625  -1.562  1.00  0.00     0.199 HD  
ATOM     13  H10 UNL     1       1.564   0.469  -0.575  1.00  0.00     0.199 HD  
BRANCH  11  14
ATOM     14  C5  UNL     1       0.849   0.521  -2.490  1.00  0.00     0.164 C   
BRANCH  14  15
ATOM     15  C6  UNL     1       1.822   1.577  -2.934  1.00  0.00    -0.002 A   
ATOM     16  C7  UNL     1       2.765   1.303  -3.952  1.00  0.00     0.012 A   
ATOM     17  C11 UNL     1       1.832   2.831  -2.298  1.00  0.00     0.045 A   
ATOM     18  C8  UNL     1       3.700   2.269  -4.343  1.00  0.00     0.037 A   
ATOM     19  C10 UNL     1       2.767   3.759  -2.706  1.00  0.00     0.109 A   
ATOM     20  C9  UNL     1       3.674   3.487  -3.700  1.00  0.00     0.108 A   
ATOM     21  O1  UNL     1       2.912   5.011  -2.199  1.00  0.00    -0.316 OA  
ATOM     22  O2  UNL     1       4.503   4.534  -3.946  1.00  0.00    -0.316 OA  
ATOM     23  C12 UNL     1       4.002   5.510  -3.007  1.00  0.00     0.337 C   
ENDBRANCH  14  15
ENDBRANCH  11  14
ENDBRANCH   7  11
ENDBRANCH   1   7
BRANCH   3  24
ATOM     24  C15 UNL     1      -3.851   0.314   1.390  1.00  0.00     0.155 C   
BRANCH  24  25
ATOM     25  C16 UNL     1      -4.194  -0.616   2.572  1.00  0.00     0.185 C   
BRANCH  25  26
ATOM     26  O3  UNL     1      -4.058  -2.002   2.251  1.00  0.00    -0.394 OA  
ATOM     27  H22 UNL     1      -4.313  -2.504   3.048  1.00  0.00     0.210 HD  
ENDBRANCH  25  26
ENDBRANCH  24  25
BRANCH  24  28
ATOM     28  C17 UNL     1      -4.802   0.333   0.196  1.00  0.00    -0.022 A   
ATOM     29  C18 UNL     1      -5.713  -0.698  -0.081  1.00  0.00     0.006 A   
ATOM     30  C22 UNL     1      -4.755   1.431  -0.688  1.00  0.00     0.026 A   
ATOM     31  C19 UNL     1      -6.549  -0.635  -1.201  1.00  0.00     0.002 A   
ATOM     32  C21 UNL     1      -5.587   1.484  -1.807  1.00  0.00     0.041 A   
ATOM     33  C20 UNL     1      -6.486   0.456  -2.066  1.00  0.00     0.020 A   
ATOM     34  CL1 UNL     1      -5.485   2.825  -2.879  1.00  0.00    -0.084 Cl  
ENDBRANCH  24  28
ENDBRANCH   3  24
TORSDOF 9
