REMARK SMILES Cc1ccc([C@H](O)Cn2cc([C@@H]([NH2+]Cc3ccc4c(c3)OCO4)C(C)(C)C)nn2)cc1
REMARK SMILES IDX 9 1 10 2 11 3 28 4 29 5 8 7 6 8 5 9 2 10 3 11 31 12 4 13
REMARK SMILES IDX 30 14 1 15 7 16 12 18 13 19 14 22 15 23 16 24 20 25 17 26
REMARK SMILES IDX 19 27 18 28 21 29 23 30 22 31 24 32 25 33 26 34 27 35
REMARK H PARENT 10 6 7 17 13 20 13 21
ROOT
ATOM     1   N1  UNL     1      -0.670  -3.367  -0.474  1.00  0.00    -0.209 N   
ATOM     2   C8  UNL     1       0.279  -2.598  -1.089  1.00  0.00     0.046 A   
ATOM     3   C9  UNL     1      -0.424  -1.921  -2.066  1.00  0.00     0.127 A   
ATOM     4   N3  UNL     1      -1.744  -2.274  -1.988  1.00  0.00    -0.132 NA  
ATOM     5   N4  UNL     1      -1.880  -3.163  -1.017  1.00  0.00    -0.076 NA  
ATOM     6   H10 UNL     1       1.312  -2.605  -0.774  1.00  0.00     0.083 HD  
ENDROOT
BRANCH   1   7
ATOM     7   C7  UNL     1      -0.505  -4.258   0.650  1.00  0.00     0.170 C   
BRANCH   7   8
ATOM     8   C6  UNL     1      -1.219  -3.770   1.913  1.00  0.00     0.164 C   
BRANCH   8   9
ATOM     9   C5  UNL     1      -0.746  -2.407   2.384  1.00  0.00    -0.018 A   
ATOM     10  C2  UNL     1       0.096   0.128   3.293  1.00  0.00    -0.051 A   
ATOM     11  C3  UNL     1       0.948  -0.978   3.386  1.00  0.00     0.004 A   
ATOM     12  C24 UNL     1      -1.179  -0.041   2.744  1.00  0.00     0.004 A   
ATOM     13  C4  UNL     1       0.533  -2.233   2.933  1.00  0.00     0.007 A   
ATOM     14  C23 UNL     1      -1.594  -1.295   2.287  1.00  0.00     0.007 A   
ATOM     15  C1  UNL     1       0.511   1.453   3.866  1.00  0.00     0.044 C   
ENDBRANCH   8   9
BRANCH   8  16
ATOM     16  O1  UNL     1      -0.997  -4.723   2.957  1.00  0.00    -0.387 OA  
ATOM     17  H7  UNL     1      -1.288  -4.311   3.792  1.00  0.00     0.211 HD  
ENDBRANCH   8  16
ENDBRANCH   7   8
ENDBRANCH   1   7
BRANCH   3  18
ATOM     18  C10 UNL     1      -0.009  -0.861  -3.041  1.00  0.00     0.120 C   
BRANCH  18  19
ATOM     19  N2  UNL     1       0.538   0.345  -2.317  1.00  0.00     0.250 N   
ATOM     20  H12 UNL     1       1.353   0.069  -1.759  1.00  0.00     0.199 HD  
ATOM     21  H13 UNL     1       0.867   1.048  -2.986  1.00  0.00     0.199 HD  
BRANCH  19  22
ATOM     22  C11 UNL     1      -0.433   1.022  -1.402  1.00  0.00     0.164 C   
BRANCH  22  23
ATOM     23  C12 UNL     1       0.172   2.283  -0.852  1.00  0.00    -0.002 A   
ATOM     24  C13 UNL     1      -0.141   3.538  -1.425  1.00  0.00     0.012 A   
ATOM     25  C17 UNL     1       1.095   2.216   0.205  1.00  0.00     0.045 A   
ATOM     26  C14 UNL     1       0.451   4.713  -0.948  1.00  0.00     0.037 A   
ATOM     27  C16 UNL     1       1.660   3.392   0.651  1.00  0.00     0.109 A   
ATOM     28  C15 UNL     1       1.347   4.605   0.091  1.00  0.00     0.108 A   
ATOM     29  O2  UNL     1       2.565   3.502   1.658  1.00  0.00    -0.316 OA  
ATOM     30  O3  UNL     1       2.015   5.633   0.676  1.00  0.00    -0.316 OA  
ATOM     31  C18 UNL     1       2.772   4.933   1.686  1.00  0.00     0.337 C   
ENDBRANCH  22  23
ENDBRANCH  19  22
ENDBRANCH  18  19
BRANCH  18  32
ATOM     32  C19 UNL     1       0.974  -1.335  -4.168  1.00  0.00     0.010 C   
ATOM     33  C20 UNL     1       1.120  -0.232  -5.244  1.00  0.00     0.017 C   
ATOM     34  C21 UNL     1       2.385  -1.674  -3.650  1.00  0.00     0.017 C   
ATOM     35  C22 UNL     1       0.401  -2.583  -4.877  1.00  0.00     0.017 C   
ENDBRANCH  18  32
ENDBRANCH   3  18
TORSDOF 9
