REMARK SMILES Cc1ccc([C@@H](O)Cn2cc([C@@H]([NH2+]Cc3ccc4c(c3)OCO4)C(C)(C)C)nn2)cc1
REMARK SMILES IDX 9 1 10 2 11 3 28 4 29 5 8 7 6 8 5 9 2 10 3 11 31 12 4 13
REMARK SMILES IDX 30 14 1 15 7 16 12 18 13 19 14 22 15 23 16 24 20 25 17 26
REMARK SMILES IDX 19 27 18 28 21 29 23 30 22 31 24 32 25 33 26 34 27 35
REMARK H PARENT 10 6 7 17 13 20 13 21
ROOT
ATOM     1   N1  UNL     1      -1.344   0.948   2.907  1.00  0.00    -0.209 N   
ATOM     2   C8  UNL     1      -0.414  -0.035   2.729  1.00  0.00     0.046 A   
ATOM     3   C9  UNL     1       0.766   0.652   2.554  1.00  0.00     0.127 A   
ATOM     4   N3  UNL     1       0.516   1.999   2.627  1.00  0.00    -0.132 NA  
ATOM     5   N4  UNL     1      -0.776   2.166   2.853  1.00  0.00    -0.076 NA  
ATOM     6   H10 UNL     1      -0.673  -1.085   2.714  1.00  0.00     0.083 HD  
ENDROOT
BRANCH   1   7
ATOM     7   C7  UNL     1      -2.772   0.801   3.061  1.00  0.00     0.170 C   
BRANCH   7   8
ATOM     8   C6  UNL     1      -3.575   1.437   1.921  1.00  0.00     0.164 C   
BRANCH   8   9
ATOM     9   C5  UNL     1      -3.192   0.928   0.545  1.00  0.00    -0.018 A   
ATOM     10  C2  UNL     1      -2.490   0.017  -2.031  1.00  0.00    -0.051 A   
ATOM     11  C3  UNL     1      -3.088  -0.849  -1.109  1.00  0.00     0.004 A   
ATOM     12  C24 UNL     1      -2.229   1.337  -1.651  1.00  0.00     0.004 A   
ATOM     13  C4  UNL     1      -3.440  -0.398   0.166  1.00  0.00     0.007 A   
ATOM     14  C23 UNL     1      -2.578   1.789  -0.376  1.00  0.00     0.007 A   
ATOM     15  C1  UNL     1      -2.131  -0.479  -3.401  1.00  0.00     0.044 C   
ENDBRANCH   8   9
BRANCH   8  16
ATOM     16  O1  UNL     1      -4.963   1.170   2.139  1.00  0.00    -0.387 OA  
ATOM     17  H7  UNL     1      -5.438   1.424   1.326  1.00  0.00     0.211 HD  
ENDBRANCH   8  16
ENDBRANCH   7   8
ENDBRANCH   1   7
BRANCH   3  18
ATOM     18  C10 UNL     1       2.139   0.168   2.209  1.00  0.00     0.120 C   
BRANCH  18  19
ATOM     19  N2  UNL     1       2.717   1.055   1.123  1.00  0.00     0.250 N   
ATOM     20  H12 UNL     1       2.648   2.020   1.473  1.00  0.00     0.199 HD  
ATOM     21  H13 UNL     1       3.707   0.851   0.971  1.00  0.00     0.199 HD  
BRANCH  19  22
ATOM     22  C11 UNL     1       2.018   1.026  -0.200  1.00  0.00     0.164 C   
BRANCH  22  23
ATOM     23  C12 UNL     1       2.095  -0.312  -0.880  1.00  0.00    -0.002 A   
ATOM     24  C13 UNL     1       3.299  -0.750  -1.483  1.00  0.00     0.012 A   
ATOM     25  C17 UNL     1       0.968  -1.154  -0.897  1.00  0.00     0.045 A   
ATOM     26  C14 UNL     1       3.380  -2.006  -2.094  1.00  0.00     0.037 A   
ATOM     27  C16 UNL     1       1.082  -2.385  -1.507  1.00  0.00     0.109 A   
ATOM     28  C15 UNL     1       2.254  -2.800  -2.089  1.00  0.00     0.108 A   
ATOM     29  O2  UNL     1       0.093  -3.310  -1.611  1.00  0.00    -0.316 OA  
ATOM     30  O3  UNL     1       2.150  -4.039  -2.636  1.00  0.00    -0.316 OA  
ATOM     31  C18 UNL     1       0.768  -4.350  -2.356  1.00  0.00     0.337 C   
ENDBRANCH  22  23
ENDBRANCH  19  22
ENDBRANCH  18  19
BRANCH  18  32
ATOM     32  C19 UNL     1       3.121   0.091   3.433  1.00  0.00     0.010 C   
ATOM     33  C20 UNL     1       3.430   1.471   4.047  1.00  0.00     0.017 C   
ATOM     34  C21 UNL     1       4.459  -0.556   3.006  1.00  0.00     0.017 C   
ATOM     35  C22 UNL     1       2.516  -0.808   4.536  1.00  0.00     0.017 C   
ENDBRANCH  18  32
ENDBRANCH   3  18
TORSDOF 9
