REMARK SMILES CC(C)[C@H]([NH2+]Cc1ccc2c(c1)OCO2)c1cn(CCc2cn[nH]c2)nn1
REMARK SMILES IDX 16 1 17 2 18 3 26 4 27 5 4 7 2 8 1 9 3 10 5 11 6 14 7 15
REMARK SMILES IDX 8 16 12 17 9 18 11 19 10 20 13 21 15 22 14 23 19 24 20 25
REMARK SMILES IDX 21 26 22 27 25 28 23 29 24 30
REMARK H PARENT 17 6 5 12 5 13 24 31
ROOT
ATOM     1   C13 UNL     1       1.388   0.757   1.646  1.00  0.00     0.127 A   
ATOM     2   C14 UNL     1       2.642   0.846   1.080  1.00  0.00     0.045 A   
ATOM     3   N2  UNL     1       2.728   2.154   0.676  1.00  0.00    -0.212 N   
ATOM     4   N5  UNL     1       1.691   2.869   1.147  1.00  0.00    -0.076 NA  
ATOM     5   N6  UNL     1       0.856   2.023   1.730  1.00  0.00    -0.132 NA  
ATOM     6   H18 UNL     1       3.379   0.116   0.777  1.00  0.00     0.083 HD  
ENDROOT
BRANCH   1   7
ATOM     7   C4  UNL     1       0.484  -0.396   1.969  1.00  0.00     0.117 C   
BRANCH   7   8
ATOM     8   C2  UNL     1       1.100  -1.813   2.044  1.00  0.00     0.037 C   
ATOM     9   C1  UNL     1       2.219  -1.898   3.089  1.00  0.00     0.014 C   
ATOM     10  C3  UNL     1       1.567  -2.405   0.711  1.00  0.00     0.014 C   
ENDBRANCH   7   8
BRANCH   7  11
ATOM     11  N1  UNL     1      -0.651  -0.346   0.976  1.00  0.00     0.249 N   
ATOM     12  H9  UNL     1      -0.965   0.636   0.960  1.00  0.00     0.199 HD  
ATOM     13  H10 UNL     1      -0.304  -0.474   0.003  1.00  0.00     0.199 HD  
BRANCH  11  14
ATOM     14  C5  UNL     1      -1.839  -1.190   1.223  1.00  0.00     0.164 C   
BRANCH  14  15
ATOM     15  C6  UNL     1      -2.988  -0.776   0.347  1.00  0.00    -0.002 A   
ATOM     16  C7  UNL     1      -3.992   0.088   0.845  1.00  0.00     0.012 A   
ATOM     17  C11 UNL     1      -3.044  -1.203  -0.991  1.00  0.00     0.045 A   
ATOM     18  C8  UNL     1      -5.047   0.510   0.028  1.00  0.00     0.037 A   
ATOM     19  C10 UNL     1      -4.097  -0.768  -1.769  1.00  0.00     0.109 A   
ATOM     20  C9  UNL     1      -5.070   0.064  -1.275  1.00  0.00     0.108 A   
ATOM     21  O1  UNL     1      -4.300  -1.088  -3.074  1.00  0.00    -0.316 OA  
ATOM     22  O2  UNL     1      -6.010   0.373  -2.205  1.00  0.00    -0.316 OA  
ATOM     23  C12 UNL     1      -5.524  -0.368  -3.345  1.00  0.00     0.337 C   
ENDBRANCH  14  15
ENDBRANCH  11  14
ENDBRANCH   7  11
ENDBRANCH   1   7
BRANCH   3  24
ATOM     24  C15 UNL     1       3.527   2.659  -0.427  1.00  0.00     0.139 C   
BRANCH  24  25
ATOM     25  C16 UNL     1       2.730   2.741  -1.744  1.00  0.00     0.060 C   
BRANCH  25  26
ATOM     26  C17 UNL     1       1.940   1.499  -2.027  1.00  0.00    -0.011 A   
ATOM     27  C18 UNL     1       0.590   1.261  -1.675  1.00  0.00     0.136 A   
ATOM     28  C19 UNL     1       2.345   0.316  -2.603  1.00  0.00     0.097 A   
ATOM     29  N3  UNL     1       0.249  -0.029  -1.802  1.00  0.00    -0.193 NA  
ATOM     30  N4  UNL     1       1.274  -0.532  -2.533  1.00  0.00    -0.246 N   
ATOM     31  H24 UNL     1       1.197  -1.472  -2.912  1.00  0.00     0.175 HD  
ENDBRANCH  25  26
ENDBRANCH  24  25
ENDBRANCH   3  24
TORSDOF 8
