REMARK SMILES CN1CCN(C(=O)N[C@@H](Cc2ccccc2)C(=O)N[C@H](/C=C/S(=O)(=O)c2ccccc2)CCc2ccccc2)CC1
REMARK SMILES IDX 20 1 19 2 17 3 18 4 9 6 8 7 2 8 3 9 41 10 4 11 40 12 5 13
REMARK SMILES IDX 6 14 1 15 7 16 10 18 11 19 12 20 16 21 13 22 15 23 14 24
REMARK SMILES IDX 21 25 22 26 23 27 24 28 25 29 26 30 27 31 31 32 28 33 30 34
REMARK SMILES IDX 29 35 32 36 33 37 34 38 35 39 39 40 36 41 38 42 37 43
REMARK H PARENT 19 5 8 17
ROOT
ATOM     1   C14 UNL     1       2.212  -1.236   0.330  1.00  0.00     0.108 C   
ENDROOT
BRANCH   1   2
ATOM     2   N4  UNL     1       1.042  -0.766  -0.383  1.00  0.00    -0.307 N   
ATOM     3   C13 UNL     1       1.012   0.442  -1.044  1.00  0.00     0.233 C   
ATOM     4   O2  UNL     1       1.959   1.230  -1.041  1.00  0.00    -0.276 OA  
ATOM     5   H17 UNL     1       0.237  -1.378  -0.455  1.00  0.00     0.150 HD  
BRANCH   3   6
ATOM     6   C5  UNL     1      -0.303   0.744  -1.794  1.00  0.00     0.166 C   
BRANCH   6   7
ATOM     7   N3  UNL     1      -0.328   2.180  -2.079  1.00  0.00    -0.287 N   
ATOM     8   N1  UNL     1      -1.414   7.032  -3.159  1.00  0.00    -0.303 NA  
ATOM     9   C2  UNL     1      -0.142   6.303  -2.979  1.00  0.00     0.103 C   
ATOM     10  C32 UNL     1      -2.414   6.505  -2.210  1.00  0.00     0.103 C   
ATOM     11  C3  UNL     1      -0.310   4.783  -3.163  1.00  0.00     0.125 C   
ATOM     12  C31 UNL     1      -2.636   4.992  -2.389  1.00  0.00     0.125 C   
ATOM     13  N2  UNL     1      -1.387   4.229  -2.331  1.00  0.00    -0.283 N   
ATOM     14  C4  UNL     1      -1.506   2.873  -2.071  1.00  0.00     0.301 C   
ATOM     15  C1  UNL     1      -1.220   8.467  -2.966  1.00  0.00     0.105 C   
ATOM     16  O1  UNL     1      -2.580   2.320  -1.849  1.00  0.00    -0.254 OA  
ATOM     17  H8  UNL     1       0.492   2.687  -1.763  1.00  0.00     0.152 HD  
ENDBRANCH   6   7
BRANCH   6  18
ATOM     18  C6  UNL     1      -0.411  -0.053  -3.105  1.00  0.00     0.068 C   
BRANCH  18  19
ATOM     19  C7  UNL     1      -0.685  -1.524  -2.900  1.00  0.00    -0.046 A   
ATOM     20  C8  UNL     1       0.325  -2.473  -3.113  1.00  0.00     0.004 A   
ATOM     21  C12 UNL     1      -1.943  -1.953  -2.454  1.00  0.00     0.004 A   
ATOM     22  C9  UNL     1       0.088  -3.823  -2.858  1.00  0.00     0.000 A   
ATOM     23  C11 UNL     1      -2.177  -3.305  -2.203  1.00  0.00     0.000 A   
ATOM     24  C10 UNL     1      -1.160  -4.238  -2.397  1.00  0.00     0.000 A   
ENDBRANCH  18  19
ENDBRANCH   6  18
ENDBRANCH   3   6
ENDBRANCH   1   2
BRANCH   1  25
ATOM     25  C15 UNL     1       2.096  -2.739   0.363  1.00  0.00     0.121 C   
BRANCH  25  26
ATOM     26  C16 UNL     1       1.506  -3.471   1.323  1.00  0.00     0.475 C   
BRANCH  26  27
ATOM     27  S1  UNL     1       1.506  -5.205   1.193  1.00  0.00    -0.202 S   
ATOM     28  O3  UNL     1       0.383  -5.617   0.372  1.00  0.00    -0.510 OA  
ATOM     29  O4  UNL     1       2.848  -5.667   0.896  1.00  0.00    -0.510 OA  
BRANCH  27  30
ATOM     30  C17 UNL     1       1.147  -5.694   2.868  1.00  0.00     0.312 A   
ATOM     31  C18 UNL     1      -0.162  -6.027   3.228  1.00  0.00     0.135 A   
ATOM     32  C22 UNL     1       2.186  -5.755   3.803  1.00  0.00     0.135 A   
ATOM     33  C19 UNL     1      -0.435  -6.400   4.544  1.00  0.00     0.012 A   
ATOM     34  C21 UNL     1       1.903  -6.126   5.117  1.00  0.00     0.012 A   
ATOM     35  C20 UNL     1       0.594  -6.445   5.486  1.00  0.00     0.001 A   
ENDBRANCH  27  30
ENDBRANCH  26  27
ENDBRANCH  25  26
ENDBRANCH   1  25
BRANCH   1  36
ATOM     36  C23 UNL     1       2.355  -0.543   1.699  1.00  0.00     0.032 C   
BRANCH  36  37
ATOM     37  C24 UNL     1       3.658  -0.931   2.408  1.00  0.00     0.038 C   
BRANCH  37  38
ATOM     38  C25 UNL     1       3.797  -0.242   3.742  1.00  0.00    -0.048 A   
ATOM     39  C26 UNL     1       4.407   1.016   3.828  1.00  0.00     0.004 A   
ATOM     40  C30 UNL     1       3.297  -0.839   4.907  1.00  0.00     0.004 A   
ATOM     41  C27 UNL     1       4.526   1.661   5.059  1.00  0.00     0.000 A   
ATOM     42  C29 UNL     1       3.417  -0.192   6.138  1.00  0.00     0.000 A   
ATOM     43  C28 UNL     1       4.032   1.057   6.214  1.00  0.00     0.000 A   
ENDBRANCH  37  38
ENDBRANCH  36  37
ENDBRANCH   1  36
TORSDOF 12
