REMARK SMILES COc1cc(-n2cc([C@@H]([NH2+]Cc3ccc4c(c3)OCO4)C(C)(C)C)nn2)ccc1N
REMARK SMILES IDX 6 1 7 2 8 3 25 4 26 5 5 6 3 7 4 8 29 9 28 10 27 11 2 12 1 13
REMARK SMILES IDX 30 14 9 17 10 18 11 21 12 22 13 23 17 24 14 25 16 26 15 27
REMARK SMILES IDX 18 28 20 29 19 30 21 31 22 32 23 33 24 34
REMARK H PARENT 30 15 30 16 10 19 10 20
ROOT
ATOM     1   N1  UNL     1       0.936   0.456  -1.646  1.00  0.00    -0.181 N   
ATOM     2   C5  UNL     1       1.467  -0.782  -1.335  1.00  0.00     0.135 A   
ATOM     3   C6  UNL     1       0.567  -1.691  -1.845  1.00  0.00     0.128 A   
ATOM     4   N3  UNL     1      -0.428  -1.019  -2.496  1.00  0.00    -0.131 NA  
ATOM     5   N4  UNL     1      -0.179   0.275  -2.400  1.00  0.00    -0.071 NA  
ENDROOT
BRANCH   1   6
ATOM     6   C4  UNL     1       1.360   1.739  -1.226  1.00  0.00     0.060 A   
ATOM     7   C2  UNL     1       2.798   3.165   0.087  1.00  0.00     0.097 A   
ATOM     8   C3  UNL     1       2.445   1.888  -0.355  1.00  0.00     0.061 A   
ATOM     9   C22 UNL     1       2.148   4.315  -0.386  1.00  0.00     0.054 A   
ATOM     10  C21 UNL     1       1.040   4.150  -1.216  1.00  0.00     0.028 A   
ATOM     11  C20 UNL     1       0.653   2.876  -1.648  1.00  0.00     0.028 A   
BRANCH   7  12
ATOM     12  O1  UNL     1       3.860   3.288   0.951  1.00  0.00    -0.347 OA  
ATOM     13  C1  UNL     1       3.401   3.193   2.301  1.00  0.00     0.203 C   
ENDBRANCH   7  12
BRANCH   9  14
ATOM     14  N5  UNL     1       2.454   5.582   0.136  1.00  0.00    -0.356 N   
ATOM     15  H27 UNL     1       2.237   6.349  -0.492  1.00  0.00     0.143 HD  
ATOM     16  H28 UNL     1       3.417   5.623   0.469  1.00  0.00     0.143 HD  
ENDBRANCH   9  14
ENDBRANCH   1   6
BRANCH   3  17
ATOM     17  C7  UNL     1       0.448  -3.173  -1.657  1.00  0.00     0.120 C   
BRANCH  17  18
ATOM     18  N2  UNL     1      -0.980  -3.472  -1.226  1.00  0.00     0.250 N   
ATOM     19  H7  UNL     1      -1.559  -2.717  -1.628  1.00  0.00     0.199 HD  
ATOM     20  H8  UNL     1      -1.328  -4.333  -1.655  1.00  0.00     0.199 HD  
BRANCH  18  21
ATOM     21  C8  UNL     1      -1.240  -3.531   0.245  1.00  0.00     0.164 C   
BRANCH  21  22
ATOM     22  C9  UNL     1      -0.860  -2.283   0.995  1.00  0.00    -0.002 A   
ATOM     23  C10 UNL     1       0.256  -2.287   1.868  1.00  0.00     0.012 A   
ATOM     24  C14 UNL     1      -1.576  -1.088   0.801  1.00  0.00     0.045 A   
ATOM     25  C11 UNL     1       0.673  -1.116   2.511  1.00  0.00     0.037 A   
ATOM     26  C13 UNL     1      -1.133   0.050   1.444  1.00  0.00     0.109 A   
ATOM     27  C12 UNL     1      -0.037   0.038   2.270  1.00  0.00     0.108 A   
ATOM     28  O2  UNL     1      -1.684   1.286   1.332  1.00  0.00    -0.316 OA  
ATOM     29  O3  UNL     1       0.242   1.266   2.781  1.00  0.00    -0.316 OA  
ATOM     30  C15 UNL     1      -0.818   2.056   2.196  1.00  0.00     0.337 C   
ENDBRANCH  21  22
ENDBRANCH  18  21
ENDBRANCH  17  18
BRANCH  17  31
ATOM     31  C16 UNL     1       0.842  -4.022  -2.913  1.00  0.00     0.010 C   
ATOM     32  C17 UNL     1      -0.095  -3.797  -4.116  1.00  0.00     0.017 C   
ATOM     33  C18 UNL     1       0.830  -5.527  -2.560  1.00  0.00     0.017 C   
ATOM     34  C19 UNL     1       2.284  -3.673  -3.350  1.00  0.00     0.017 C   
ENDBRANCH  17  31
ENDBRANCH   3  17
TORSDOF 8
