REMARK SMILES COc1cccc(CCn2cc([C@@H]([NH2+]Cc3ccc4c(c3)OCO4)C3CCCCC3)nn2)n1
REMARK SMILES IDX 10 1 11 2 12 3 31 4 32 5 9 7 8 8 7 9 3 10 4 11 33 12 5 13
REMARK SMILES IDX 6 14 2 15 1 16 13 17 14 18 15 21 16 22 17 23 21 24 18 25
REMARK SMILES IDX 20 26 19 27 22 28 24 29 23 30 25 31 26 32 30 33 27 34 29 35
REMARK SMILES IDX 28 36
REMARK H PARENT 11 6 14 19 14 20
ROOT
ATOM     1   N1  UNL     1      -3.371  -0.933  -0.484  1.00  0.00    -0.212 N   
ATOM     2   C9  UNL     1      -2.006  -0.990  -0.479  1.00  0.00     0.045 A   
ATOM     3   C10 UNL     1      -1.620   0.278  -0.847  1.00  0.00     0.127 A   
ATOM     4   N3  UNL     1      -2.736   1.027  -1.121  1.00  0.00    -0.132 NA  
ATOM     5   N4  UNL     1      -3.800   0.269  -0.912  1.00  0.00    -0.076 NA  
ATOM     6   H11 UNL     1      -1.463  -1.879  -0.187  1.00  0.00     0.083 HD  
ENDROOT
BRANCH   1   7
ATOM     7   C8  UNL     1      -4.316  -1.990  -0.189  1.00  0.00     0.140 C   
BRANCH   7   8
ATOM     8   C7  UNL     1      -4.690  -2.075   1.288  1.00  0.00     0.077 C   
BRANCH   8   9
ATOM     9   C6  UNL     1      -3.564  -2.635   2.119  1.00  0.00     0.045 A   
ATOM     10  C2  UNL     1      -1.655  -2.230   3.358  1.00  0.00     0.166 A   
ATOM     11  C3  UNL     1      -1.429  -3.579   3.563  1.00  0.00     0.055 A   
ATOM     12  N5  UNL     1      -2.682  -1.742   2.626  1.00  0.00    -0.229 NA  
ATOM     13  C4  UNL     1      -2.336  -4.485   3.025  1.00  0.00     0.006 A   
ATOM     14  C5  UNL     1      -3.423  -4.010   2.295  1.00  0.00     0.024 A   
BRANCH  10  15
ATOM     15  O1  UNL     1      -0.730  -1.357   3.892  1.00  0.00    -0.333 OA  
ATOM     16  C1  UNL     1      -1.283  -0.062   4.107  1.00  0.00     0.205 C   
ENDBRANCH  10  15
ENDBRANCH   8   9
ENDBRANCH   7   8
ENDBRANCH   1   7
BRANCH   3  17
ATOM     17  C11 UNL     1      -0.264   0.881  -1.019  1.00  0.00     0.117 C   
BRANCH  17  18
ATOM     18  N2  UNL     1      -0.317   1.975  -2.060  1.00  0.00     0.249 N   
ATOM     19  H13 UNL     1       0.469   2.622  -1.959  1.00  0.00     0.199 HD  
ATOM     20  H14 UNL     1      -1.176   2.508  -1.860  1.00  0.00     0.199 HD  
BRANCH  18  21
ATOM     21  C12 UNL     1      -0.401   1.525  -3.480  1.00  0.00     0.164 C   
BRANCH  21  22
ATOM     22  C13 UNL     1       0.897   0.952  -3.979  1.00  0.00    -0.002 A   
ATOM     23  C14 UNL     1       1.996   1.802  -4.256  1.00  0.00     0.012 A   
ATOM     24  C18 UNL     1       1.040  -0.437  -4.141  1.00  0.00     0.045 A   
ATOM     25  C15 UNL     1       3.221   1.278  -4.681  1.00  0.00     0.037 A   
ATOM     26  C17 UNL     1       2.261  -0.921  -4.560  1.00  0.00     0.109 A   
ATOM     27  C16 UNL     1       3.321  -0.089  -4.821  1.00  0.00     0.108 A   
ATOM     28  O2  UNL     1       2.567  -2.230  -4.755  1.00  0.00    -0.316 OA  
ATOM     29  O3  UNL     1       4.428  -0.769  -5.218  1.00  0.00    -0.316 OA  
ATOM     30  C19 UNL     1       3.936  -2.126  -5.210  1.00  0.00     0.337 C   
ENDBRANCH  21  22
ENDBRANCH  18  21
ENDBRANCH  17  18
BRANCH  17  31
ATOM     31  C20 UNL     1       0.315   1.432   0.313  1.00  0.00     0.043 C   
ATOM     32  C21 UNL     1       1.832   1.686   0.199  1.00  0.00     0.010 C   
ATOM     33  C25 UNL     1      -0.403   2.693   0.837  1.00  0.00     0.010 C   
ATOM     34  C22 UNL     1       2.425   2.178   1.517  1.00  0.00     0.001 C   
ATOM     35  C24 UNL     1       0.207   3.194   2.146  1.00  0.00     0.001 C   
ATOM     36  C23 UNL     1       1.709   3.426   2.021  1.00  0.00     0.000 C   
ENDBRANCH  17  31
ENDBRANCH   3  17
TORSDOF 9
