REMARK SMILES CC(C)(C)[C@H]([NH2+]Cc1ccc2c(c1)OCO2)c1cn([C@H](CO)c2cccc(F)c2F)nn1
REMARK SMILES IDX 17 1 18 2 19 3 31 4 32 5 5 7 2 8 1 9 3 10 4 11 6 12 7 15
REMARK SMILES IDX 8 16 9 17 13 18 10 19 12 20 11 21 14 22 16 23 15 24 20 25
REMARK SMILES IDX 21 26 22 27 23 29 24 30 29 31 25 32 27 33 26 34 30 35 28 36
REMARK H PARENT 18 6 6 13 6 14 22 28
ROOT
ATOM     1   C14 UNL     1       0.486  -0.166   2.180  1.00  0.00     0.127 A   
ATOM     2   C15 UNL     1      -0.379   0.869   1.908  1.00  0.00     0.046 A   
ATOM     3   N2  UNL     1       0.323   1.992   2.255  1.00  0.00    -0.202 N   
ATOM     4   N3  UNL     1       1.534   1.660   2.752  1.00  0.00    -0.075 NA  
ATOM     5   N4  UNL     1       1.646   0.343   2.704  1.00  0.00    -0.132 NA  
ATOM     6   H20 UNL     1      -1.374   0.918   1.486  1.00  0.00     0.083 HD  
ENDROOT
BRANCH   1   7
ATOM     7   C5  UNL     1       0.377  -1.629   1.892  1.00  0.00     0.120 C   
BRANCH   7   8
ATOM     8   C2  UNL     1      -0.059  -2.498   3.125  1.00  0.00     0.010 C   
ATOM     9   C1  UNL     1      -1.407  -1.984   3.681  1.00  0.00     0.017 C   
ATOM     10  C3  UNL     1      -0.279  -3.967   2.696  1.00  0.00     0.017 C   
ATOM     11  C4  UNL     1       0.974  -2.482   4.270  1.00  0.00     0.017 C   
ENDBRANCH   7   8
BRANCH   7  12
ATOM     12  N1  UNL     1       1.697  -2.129   1.331  1.00  0.00     0.250 N   
ATOM     13  H11 UNL     1       2.417  -1.885   2.024  1.00  0.00     0.199 HD  
ATOM     14  H12 UNL     1       1.690  -3.146   1.235  1.00  0.00     0.199 HD  
BRANCH  12  15
ATOM     15  C6  UNL     1       2.142  -1.532   0.031  1.00  0.00     0.164 C   
BRANCH  15  16
ATOM     16  C7  UNL     1       1.172  -1.761  -1.094  1.00  0.00    -0.002 A   
ATOM     17  C8  UNL     1       0.989  -3.054  -1.641  1.00  0.00     0.012 A   
ATOM     18  C12 UNL     1       0.412  -0.686  -1.590  1.00  0.00     0.045 A   
ATOM     19  C9  UNL     1       0.057  -3.276  -2.660  1.00  0.00     0.037 A   
ATOM     20  C11 UNL     1      -0.501  -0.940  -2.591  1.00  0.00     0.109 A   
ATOM     21  C10 UNL     1      -0.674  -2.198  -3.111  1.00  0.00     0.108 A   
ATOM     22  O1  UNL     1      -1.320  -0.021  -3.167  1.00  0.00    -0.316 OA  
ATOM     23  O2  UNL     1      -1.620  -2.230  -4.085  1.00  0.00    -0.316 OA  
ATOM     24  C13 UNL     1      -1.998  -0.838  -4.148  1.00  0.00     0.337 C   
ENDBRANCH  15  16
ENDBRANCH  12  15
ENDBRANCH   7  12
ENDBRANCH   1   7
BRANCH   3  25
ATOM     25  C16 UNL     1      -0.044   3.402   2.087  1.00  0.00     0.158 C   
BRANCH  25  26
ATOM     26  C17 UNL     1      -0.868   3.872   3.302  1.00  0.00     0.186 C   
BRANCH  26  27
ATOM     27  O3  UNL     1      -2.098   3.159   3.433  1.00  0.00    -0.394 OA  
ATOM     28  H24 UNL     1      -2.537   3.491   4.240  1.00  0.00     0.210 HD  
ENDBRANCH  26  27
ENDBRANCH  25  26
BRANCH  25  29
ATOM     29  C18 UNL     1      -0.618   3.659   0.697  1.00  0.00     0.016 A   
ATOM     30  C19 UNL     1      -1.913   4.151   0.466  1.00  0.00     0.009 A   
ATOM     31  C23 UNL     1       0.185   3.399  -0.426  1.00  0.00     0.164 A   
ATOM     32  C20 UNL     1      -2.381   4.364  -0.838  1.00  0.00     0.004 A   
ATOM     33  C22 UNL     1      -0.284   3.606  -1.719  1.00  0.00     0.159 A   
ATOM     34  C21 UNL     1      -1.566   4.089  -1.934  1.00  0.00     0.042 A   
ATOM     35  F2  UNL     1       1.424   2.912  -0.254  1.00  0.00    -0.203 F   
ATOM     36  F1  UNL     1       0.501   3.323  -2.768  1.00  0.00    -0.204 F   
ENDBRANCH  25  29
ENDBRANCH   3  25
TORSDOF 9
