REMARK SMILES CC(C)(C)[C@H]([NH2+]Cc1ccc2c(c1)OCO2)c1cn([C@@H](CO)c2cccc(F)c2F)nn1
REMARK SMILES IDX 17 1 18 2 19 3 31 4 32 5 5 7 2 8 1 9 3 10 4 11 6 12 7 15
REMARK SMILES IDX 8 16 9 17 13 18 10 19 12 20 11 21 14 22 16 23 15 24 20 25
REMARK SMILES IDX 21 26 22 27 23 29 24 30 29 31 25 32 27 33 26 34 30 35 28 36
REMARK H PARENT 18 6 6 13 6 14 22 28
ROOT
ATOM     1   C14 UNL     1      -0.247   0.606   0.960  1.00  0.00     0.127 A   
ATOM     2   C15 UNL     1       0.992   0.143   0.585  1.00  0.00     0.046 A   
ATOM     3   N2  UNL     1       1.070  -1.099   1.157  1.00  0.00    -0.202 N   
ATOM     4   N3  UNL     1      -0.078  -1.403   1.799  1.00  0.00    -0.075 NA  
ATOM     5   N4  UNL     1      -0.884  -0.360   1.698  1.00  0.00    -0.132 NA  
ATOM     6   H20 UNL     1       1.796   0.556  -0.009  1.00  0.00     0.083 HD  
ENDROOT
BRANCH   1   7
ATOM     7   C5  UNL     1      -0.980   1.872   0.631  1.00  0.00     0.120 C   
BRANCH   7   8
ATOM     8   C2  UNL     1      -0.778   3.025   1.675  1.00  0.00     0.010 C   
ATOM     9   C1  UNL     1       0.724   3.373   1.795  1.00  0.00     0.017 C   
ATOM     10  C3  UNL     1      -1.496   4.309   1.196  1.00  0.00     0.017 C   
ATOM     11  C4  UNL     1      -1.306   2.662   3.078  1.00  0.00     0.017 C   
ENDBRANCH   7   8
BRANCH   7  12
ATOM     12  N1  UNL     1      -2.455   1.532   0.488  1.00  0.00     0.250 N   
ATOM     13  H11 UNL     1      -2.585   0.651   1.012  1.00  0.00     0.199 HD  
ATOM     14  H12 UNL     1      -3.050   2.215   0.960  1.00  0.00     0.199 HD  
BRANCH  12  15
ATOM     15  C6  UNL     1      -2.960   1.329  -0.898  1.00  0.00     0.164 C   
BRANCH  15  16
ATOM     16  C7  UNL     1      -2.271   0.234  -1.661  1.00  0.00    -0.002 A   
ATOM     17  C8  UNL     1      -2.461  -1.123  -1.307  1.00  0.00     0.012 A   
ATOM     18  C12 UNL     1      -1.416   0.554  -2.731  1.00  0.00     0.045 A   
ATOM     19  C9  UNL     1      -1.812  -2.148  -2.004  1.00  0.00     0.037 A   
ATOM     20  C11 UNL     1      -0.791  -0.479  -3.397  1.00  0.00     0.109 A   
ATOM     21  C10 UNL     1      -0.985  -1.792  -3.048  1.00  0.00     0.108 A   
ATOM     22  O1  UNL     1       0.061  -0.340  -4.445  1.00  0.00    -0.316 OA  
ATOM     23  O2  UNL     1      -0.289  -2.647  -3.843  1.00  0.00    -0.316 OA  
ATOM     24  C13 UNL     1       0.382  -1.722  -4.724  1.00  0.00     0.337 C   
ENDBRANCH  15  16
ENDBRANCH  12  15
ENDBRANCH   7  12
ENDBRANCH   1   7
BRANCH   3  25
ATOM     25  C16 UNL     1       2.198  -2.032   1.121  1.00  0.00     0.158 C   
BRANCH  25  26
ATOM     26  C17 UNL     1       2.577  -2.527   2.531  1.00  0.00     0.186 C   
BRANCH  26  27
ATOM     27  O3  UNL     1       3.184  -1.471   3.278  1.00  0.00    -0.394 OA  
ATOM     28  H24 UNL     1       3.283  -1.789   4.195  1.00  0.00     0.210 HD  
ENDBRANCH  26  27
ENDBRANCH  25  26
BRANCH  25  29
ATOM     29  C18 UNL     1       1.920  -3.139   0.123  1.00  0.00     0.016 A   
ATOM     30  C19 UNL     1       1.203  -4.302   0.453  1.00  0.00     0.009 A   
ATOM     31  C23 UNL     1       2.373  -2.997  -1.195  1.00  0.00     0.164 A   
ATOM     32  C20 UNL     1       0.984  -5.300  -0.503  1.00  0.00     0.004 A   
ATOM     33  C22 UNL     1       2.158  -3.992  -2.140  1.00  0.00     0.159 A   
ATOM     34  C21 UNL     1       1.465  -5.147  -1.802  1.00  0.00     0.042 A   
ATOM     35  F2  UNL     1       3.024  -1.880  -1.551  1.00  0.00    -0.203 F   
ATOM     36  F1  UNL     1       2.606  -3.837  -3.394  1.00  0.00    -0.204 F   
ENDBRANCH  25  29
ENDBRANCH   3  25
TORSDOF 9
