REMARK SMILES COc1cccc([C@H](CO)n2cc([C@@H]([NH2+]Cc3ccc4c(c3)OCO4)C(C)C)nn2)c1
REMARK SMILES IDX 11 1 12 2 13 3 29 4 30 5 8 7 7 8 3 9 4 10 31 11 5 12 6 13
REMARK SMILES IDX 2 14 1 15 9 16 10 17 14 19 15 20 16 23 17 24 18 25 22 26
REMARK SMILES IDX 19 27 21 28 20 29 23 30 25 31 24 32 26 33 27 34 28 35
REMARK H PARENT 12 6 10 18 15 21 15 22
ROOT
ATOM     1   N1  UNL     1       1.948  -1.079   0.537  1.00  0.00    -0.202 N   
ATOM     2   C9  UNL     1       0.906  -1.541   1.301  1.00  0.00     0.046 A   
ATOM     3   C10 UNL     1      -0.203  -1.347   0.509  1.00  0.00     0.127 A   
ATOM     4   N3  UNL     1       0.183  -0.780  -0.678  1.00  0.00    -0.132 NA  
ATOM     5   N4  UNL     1       1.493  -0.609  -0.645  1.00  0.00    -0.075 NA  
ATOM     6   H11 UNL     1       1.055  -1.948   2.292  1.00  0.00     0.083 HD  
ENDROOT
BRANCH   1   7
ATOM     7   C7  UNL     1       3.367  -1.032   0.896  1.00  0.00     0.155 C   
BRANCH   7   8
ATOM     8   C6  UNL     1       3.732   0.348   1.418  1.00  0.00    -0.021 A   
ATOM     9   C2  UNL     1       4.104   2.738   1.059  1.00  0.00     0.075 A   
ATOM     10  C3  UNL     1       4.418   2.891   2.408  1.00  0.00     0.033 A   
ATOM     11  C23 UNL     1       3.762   1.472   0.574  1.00  0.00     0.039 A   
ATOM     12  C4  UNL     1       4.394   1.786   3.261  1.00  0.00     0.003 A   
ATOM     13  C5  UNL     1       4.054   0.524   2.772  1.00  0.00     0.006 A   
BRANCH   9  14
ATOM     14  O1  UNL     1       4.087   3.731   0.119  1.00  0.00    -0.349 OA  
ATOM     15  C1  UNL     1       4.537   5.016   0.532  1.00  0.00     0.203 C   
ENDBRANCH   9  14
ENDBRANCH   7   8
BRANCH   7  16
ATOM     16  C8  UNL     1       4.282  -1.515  -0.242  1.00  0.00     0.185 C   
BRANCH  16  17
ATOM     17  O2  UNL     1       4.155  -2.930  -0.406  1.00  0.00    -0.394 OA  
ATOM     18  H10 UNL     1       4.731  -3.182  -1.151  1.00  0.00     0.210 HD  
ENDBRANCH  16  17
ENDBRANCH   7  16
ENDBRANCH   1   7
BRANCH   3  19
ATOM     19  C11 UNL     1      -1.654  -1.616   0.754  1.00  0.00     0.117 C   
BRANCH  19  20
ATOM     20  N2  UNL     1      -2.503  -0.756  -0.143  1.00  0.00     0.249 N   
ATOM     21  H13 UNL     1      -3.449  -1.130  -0.261  1.00  0.00     0.199 HD  
ATOM     22  H14 UNL     1      -2.062  -0.782  -1.075  1.00  0.00     0.199 HD  
BRANCH  20  23
ATOM     23  C12 UNL     1      -2.592   0.679   0.249  1.00  0.00     0.164 C   
BRANCH  23  24
ATOM     24  C13 UNL     1      -3.402   1.445  -0.759  1.00  0.00    -0.002 A   
ATOM     25  C14 UNL     1      -4.788   1.651  -0.562  1.00  0.00     0.012 A   
ATOM     26  C18 UNL     1      -2.791   1.914  -1.935  1.00  0.00     0.045 A   
ATOM     27  C15 UNL     1      -5.556   2.323  -1.518  1.00  0.00     0.037 A   
ATOM     28  C17 UNL     1      -3.579   2.572  -2.858  1.00  0.00     0.109 A   
ATOM     29  C16 UNL     1      -4.922   2.771  -2.656  1.00  0.00     0.108 A   
ATOM     30  O3  UNL     1      -3.151   3.082  -4.042  1.00  0.00    -0.316 OA  
ATOM     31  O4  UNL     1      -5.508   3.436  -3.685  1.00  0.00    -0.316 OA  
ATOM     32  C19 UNL     1      -4.376   3.650  -4.556  1.00  0.00     0.337 C   
ENDBRANCH  23  24
ENDBRANCH  20  23
ENDBRANCH  19  20
BRANCH  19  33
ATOM     33  C20 UNL     1      -2.012  -3.113   0.560  1.00  0.00     0.037 C   
ATOM     34  C21 UNL     1      -3.403  -3.440   1.117  1.00  0.00     0.014 C   
ATOM     35  C22 UNL     1      -1.911  -3.593  -0.892  1.00  0.00     0.014 C   
ENDBRANCH  19  33
ENDBRANCH   3  19
TORSDOF 10
