REMARK SMILES COc1cccc([C@@H](CO)n2cc([C@@H]([NH2+]Cc3ccc4c(c3)OCO4)C(C)C)nn2)c1
REMARK SMILES IDX 11 1 12 2 13 3 29 4 30 5 8 7 7 8 3 9 4 10 31 11 5 12 6 13
REMARK SMILES IDX 2 14 1 15 9 16 10 17 14 19 15 20 16 23 17 24 18 25 22 26
REMARK SMILES IDX 19 27 21 28 20 29 23 30 25 31 24 32 26 33 27 34 28 35
REMARK H PARENT 12 6 10 18 15 21 15 22
ROOT
ATOM     1   N1  UNL     1      -0.840   2.929  -1.764  1.00  0.00    -0.202 N   
ATOM     2   C9  UNL     1       0.172   2.148  -1.271  1.00  0.00     0.046 A   
ATOM     3   C10 UNL     1       0.126   1.009  -2.038  1.00  0.00     0.127 A   
ATOM     4   N3  UNL     1      -0.890   1.121  -2.951  1.00  0.00    -0.132 NA  
ATOM     5   N4  UNL     1      -1.478   2.293  -2.772  1.00  0.00    -0.075 NA  
ATOM     6   H11 UNL     1       0.797   2.469  -0.448  1.00  0.00     0.083 HD  
ENDROOT
BRANCH   1   7
ATOM     7   C7  UNL     1      -1.306   4.234  -1.301  1.00  0.00     0.155 C   
BRANCH   7   8
ATOM     8   C6  UNL     1      -1.816   4.132   0.132  1.00  0.00    -0.021 A   
ATOM     9   C2  UNL     1      -1.489   4.229   2.554  1.00  0.00     0.075 A   
ATOM     10  C3  UNL     1      -2.820   3.871   2.753  1.00  0.00     0.033 A   
ATOM     11  C23 UNL     1      -0.996   4.355   1.250  1.00  0.00     0.039 A   
ATOM     12  C4  UNL     1      -3.650   3.638   1.656  1.00  0.00     0.003 A   
ATOM     13  C5  UNL     1      -3.153   3.762   0.358  1.00  0.00     0.006 A   
BRANCH   9  14
ATOM     14  O1  UNL     1      -0.566   4.471   3.534  1.00  0.00    -0.349 OA  
ATOM     15  C1  UNL     1      -1.038   4.473   4.877  1.00  0.00     0.203 C   
ENDBRANCH   9  14
ENDBRANCH   7   8
BRANCH   7  16
ATOM     16  C8  UNL     1      -0.291   5.357  -1.602  1.00  0.00     0.185 C   
BRANCH  16  17
ATOM     17  O2  UNL     1       1.005   5.119  -1.052  1.00  0.00    -0.394 OA  
ATOM     18  H10 UNL     1       1.537   5.920  -1.218  1.00  0.00     0.210 HD  
ENDBRANCH  16  17
ENDBRANCH   7  16
ENDBRANCH   1   7
BRANCH   3  19
ATOM     19  C11 UNL     1       0.929  -0.248  -1.963  1.00  0.00     0.117 C   
BRANCH  19  20
ATOM     20  N2  UNL     1       0.085  -1.438  -2.357  1.00  0.00     0.249 N   
ATOM     21  H13 UNL     1      -0.360  -1.190  -3.251  1.00  0.00     0.199 HD  
ATOM     22  H14 UNL     1       0.671  -2.260  -2.522  1.00  0.00     0.199 HD  
BRANCH  20  23
ATOM     23  C12 UNL     1      -1.013  -1.804  -1.411  1.00  0.00     0.164 C   
BRANCH  23  24
ATOM     24  C13 UNL     1      -0.507  -2.289  -0.082  1.00  0.00    -0.002 A   
ATOM     25  C14 UNL     1      -0.637  -1.475   1.070  1.00  0.00     0.012 A   
ATOM     26  C18 UNL     1       0.130  -3.538   0.022  1.00  0.00     0.045 A   
ATOM     27  C15 UNL     1      -0.136  -1.894   2.307  1.00  0.00     0.037 A   
ATOM     28  C17 UNL     1       0.614  -3.919   1.256  1.00  0.00     0.109 A   
ATOM     29  C16 UNL     1       0.485  -3.121   2.366  1.00  0.00     0.108 A   
ATOM     30  O3  UNL     1       1.258  -5.085   1.525  1.00  0.00    -0.316 OA  
ATOM     31  O4  UNL     1       1.031  -3.685   3.475  1.00  0.00    -0.316 OA  
ATOM     32  C19 UNL     1       1.502  -4.942   2.944  1.00  0.00     0.337 C   
ENDBRANCH  23  24
ENDBRANCH  20  23
ENDBRANCH  19  20
BRANCH  19  33
ATOM     33  C20 UNL     1       2.211  -0.183  -2.836  1.00  0.00     0.037 C   
ATOM     34  C21 UNL     1       1.944  -0.170  -4.345  1.00  0.00     0.014 C   
ATOM     35  C22 UNL     1       3.183  -1.319  -2.495  1.00  0.00     0.014 C   
ENDBRANCH  19  33
ENDBRANCH   3  19
TORSDOF 10
