REMARK SMILES CC(C)(C)[C@H]([NH2+]Cc1ccc2c(c1)OCO2)c1cn(Cc2ccc(-n3cccn3)cc2)nn1
REMARK SMILES IDX 17 1 18 2 19 3 32 4 33 5 5 7 2 8 1 9 3 10 4 11 6 12 7 15
REMARK SMILES IDX 8 16 9 17 13 18 10 19 12 20 11 21 14 22 16 23 15 24 20 25
REMARK SMILES IDX 21 26 22 27 31 28 23 29 30 30 24 31 25 32 26 33 29 34 27 35
REMARK SMILES IDX 28 36
REMARK H PARENT 18 6 6 13 6 14
ROOT
ATOM     1   C14 UNL     1      -1.344  -1.087  -1.421  1.00  0.00     0.127 A   
ATOM     2   C15 UNL     1      -2.114  -0.552  -0.412  1.00  0.00     0.046 A   
ATOM     3   N2  UNL     1      -2.419  -1.630   0.376  1.00  0.00    -0.208 N   
ATOM     4   N5  UNL     1      -1.935  -2.767  -0.161  1.00  0.00    -0.076 NA  
ATOM     5   N6  UNL     1      -1.272  -2.446  -1.261  1.00  0.00    -0.132 NA  
ATOM     6   H20 UNL     1      -2.380   0.460  -0.136  1.00  0.00     0.083 HD  
ENDROOT
BRANCH   1   7
ATOM     7   C5  UNL     1      -0.519  -0.413  -2.471  1.00  0.00     0.120 C   
BRANCH   7   8
ATOM     8   C2  UNL     1      -1.159  -0.427  -3.904  1.00  0.00     0.010 C   
ATOM     9   C1  UNL     1      -1.300  -1.846  -4.492  1.00  0.00     0.017 C   
ATOM     10  C3  UNL     1      -2.563   0.220  -3.858  1.00  0.00     0.017 C   
ATOM     11  C4  UNL     1      -0.305   0.414  -4.881  1.00  0.00     0.017 C   
ENDBRANCH   7   8
BRANCH   7  12
ATOM     12  N1  UNL     1       0.865  -1.036  -2.501  1.00  0.00     0.250 N   
ATOM     13  H11 UNL     1       1.419  -0.652  -3.268  1.00  0.00     0.199 HD  
ATOM     14  H12 UNL     1       0.729  -2.039  -2.685  1.00  0.00     0.199 HD  
BRANCH  12  15
ATOM     15  C6  UNL     1       1.672  -0.945  -1.241  1.00  0.00     0.164 C   
BRANCH  15  16
ATOM     16  C7  UNL     1       1.944   0.465  -0.796  1.00  0.00    -0.002 A   
ATOM     17  C8  UNL     1       2.826   1.296  -1.526  1.00  0.00     0.012 A   
ATOM     18  C12 UNL     1       1.308   0.971   0.352  1.00  0.00     0.045 A   
ATOM     19  C9  UNL     1       3.069   2.613  -1.120  1.00  0.00     0.037 A   
ATOM     20  C11 UNL     1       1.569   2.272   0.724  1.00  0.00     0.109 A   
ATOM     21  C10 UNL     1       2.427   3.070   0.009  1.00  0.00     0.108 A   
ATOM     22  O1  UNL     1       1.035   2.912   1.798  1.00  0.00    -0.316 OA  
ATOM     23  O2  UNL     1       2.548   4.312   0.547  1.00  0.00    -0.316 OA  
ATOM     24  C13 UNL     1       1.714   4.186   1.719  1.00  0.00     0.337 C   
ENDBRANCH  15  16
ENDBRANCH  12  15
ENDBRANCH   7  12
ENDBRANCH   1   7
BRANCH   3  25
ATOM     25  C16 UNL     1      -2.965  -1.616   1.725  1.00  0.00     0.169 C   
BRANCH  25  26
ATOM     26  C17 UNL     1      -1.960  -0.994   2.667  1.00  0.00    -0.028 A   
ATOM     27  C18 UNL     1      -2.148   0.304   3.163  1.00  0.00     0.007 A   
ATOM     28  C25 UNL     1      -0.781  -1.680   2.991  1.00  0.00     0.007 A   
ATOM     29  C19 UNL     1      -1.158   0.923   3.935  1.00  0.00     0.026 A   
ATOM     30  C24 UNL     1       0.211  -1.063   3.755  1.00  0.00     0.026 A   
ATOM     31  C20 UNL     1       0.037   0.250   4.217  1.00  0.00     0.056 A   
BRANCH  31  32
ATOM     32  N3  UNL     1       1.085   0.876   4.948  1.00  0.00    -0.201 N   
ATOM     33  C21 UNL     1       1.100   2.132   5.518  1.00  0.00     0.103 A   
ATOM     34  N4  UNL     1       2.273   0.241   5.137  1.00  0.00    -0.185 NA  
ATOM     35  C22 UNL     1       2.329   2.295   6.113  1.00  0.00     0.039 A   
ATOM     36  C23 UNL     1       3.007   1.097   5.849  1.00  0.00     0.133 A   
ENDBRANCH  31  32
ENDBRANCH  25  26
ENDBRANCH   3  25
TORSDOF 8
