REMARK SMILES CC(C)C[C@H]([NH2+]Cc1ccc2c(c1)OCO2)c1cn(CCc2cccc(F)c2)nn1
REMARK SMILES IDX 17 1 18 2 19 3 29 4 30 5 5 7 4 8 2 9 1 10 3 11 6 12 7 15
REMARK SMILES IDX 8 16 9 17 13 18 10 19 12 20 11 21 14 22 16 23 15 24 20 25
REMARK SMILES IDX 21 26 22 27 23 28 28 29 24 30 26 31 25 32 27 33
REMARK H PARENT 18 6 6 13 6 14
ROOT
ATOM     1   C14 UNL     1       0.066   0.937  -1.352  1.00  0.00     0.127 A   
ATOM     2   C15 UNL     1      -0.968   0.595  -2.193  1.00  0.00     0.045 A   
ATOM     3   N2  UNL     1      -0.377   0.496  -3.422  1.00  0.00    -0.212 N   
ATOM     4   N3  UNL     1       0.932   0.798  -3.352  1.00  0.00    -0.076 NA  
ATOM     5   N4  UNL     1       1.217   1.076  -2.090  1.00  0.00    -0.132 NA  
ATOM     6   H20 UNL     1      -2.016   0.371  -2.033  1.00  0.00     0.083 HD  
ENDROOT
BRANCH   1   7
ATOM     7   C5  UNL     1       0.121   1.106   0.134  1.00  0.00     0.114 C   
BRANCH   7   8
ATOM     8   C4  UNL     1      -0.341   2.516   0.549  1.00  0.00     0.064 C   
BRANCH   8   9
ATOM     9   C2  UNL     1      -0.450   2.778   2.067  1.00  0.00    -0.012 C   
ATOM     10  C1  UNL     1      -1.418   1.819   2.761  1.00  0.00     0.007 C   
ATOM     11  C3  UNL     1      -0.903   4.223   2.304  1.00  0.00     0.007 C   
ENDBRANCH   8   9
ENDBRANCH   7   8
BRANCH   7  12
ATOM     12  N1  UNL     1       1.538   0.892   0.609  1.00  0.00     0.249 N   
ATOM     13  H11 UNL     1       1.708   1.338   1.513  1.00  0.00     0.199 HD  
ATOM     14  H12 UNL     1       2.135   1.371  -0.080  1.00  0.00     0.199 HD  
BRANCH  12  15
ATOM     15  C6  UNL     1       1.994  -0.527   0.677  1.00  0.00     0.164 C   
BRANCH  15  16
ATOM     16  C7  UNL     1       1.594  -1.185   1.968  1.00  0.00    -0.002 A   
ATOM     17  C8  UNL     1       2.336  -0.935   3.148  1.00  0.00     0.012 A   
ATOM     18  C12 UNL     1       0.469  -2.026   2.025  1.00  0.00     0.045 A   
ATOM     19  C9  UNL     1       1.968  -1.518   4.365  1.00  0.00     0.037 A   
ATOM     20  C11 UNL     1       0.132  -2.583   3.242  1.00  0.00     0.109 A   
ATOM     21  C10 UNL     1       0.862  -2.338   4.378  1.00  0.00     0.108 A   
ATOM     22  O1  UNL     1      -0.919  -3.412   3.471  1.00  0.00    -0.316 OA  
ATOM     23  O2  UNL     1       0.368  -2.989   5.464  1.00  0.00    -0.316 OA  
ATOM     24  C13 UNL     1      -0.743  -3.700   4.877  1.00  0.00     0.337 C   
ENDBRANCH  15  16
ENDBRANCH  12  15
ENDBRANCH   7  12
ENDBRANCH   1   7
BRANCH   3  25
ATOM     25  C16 UNL     1      -0.959   0.028  -4.664  1.00  0.00     0.139 C   
BRANCH  25  26
ATOM     26  C17 UNL     1      -0.661  -1.452  -4.933  1.00  0.00     0.057 C   
BRANCH  26  27
ATOM     27  C18 UNL     1      -1.270  -2.362  -3.890  1.00  0.00    -0.043 A   
ATOM     28  C19 UNL     1      -2.627  -2.716  -3.954  1.00  0.00     0.004 A   
ATOM     29  C23 UNL     1      -0.500  -2.812  -2.807  1.00  0.00     0.043 A   
ATOM     30  C20 UNL     1      -3.207  -3.488  -2.944  1.00  0.00     0.003 A   
ATOM     31  C22 UNL     1      -1.091  -3.570  -1.803  1.00  0.00     0.123 A   
ATOM     32  C21 UNL     1      -2.437  -3.912  -1.860  1.00  0.00     0.039 A   
ATOM     33  F1  UNL     1      -0.354  -3.946  -0.748  1.00  0.00    -0.207 F   
ENDBRANCH  26  27
ENDBRANCH  25  26
ENDBRANCH   3  25
TORSDOF 9
