REMARK SMILES Cc1cccc(C)c1[C@H](CO)n1cc([C@H](CC(C)C)[NH2+]Cc2ccc3c(c2)OCO3)nn1
REMARK SMILES IDX 12 1 13 2 14 3 31 4 32 5 9 7 8 8 2 9 3 10 4 11 6 12 5 13
REMARK SMILES IDX 1 14 7 15 10 16 11 17 15 19 16 20 17 21 18 22 19 23 20 24
REMARK SMILES IDX 21 27 22 28 23 29 27 30 24 31 26 32 25 33 28 34 30 35 29 36
REMARK H PARENT 13 6 11 18 20 25 20 26
ROOT
ATOM     1   N1  UNL     1       1.307  -0.414   1.744  1.00  0.00    -0.202 N   
ATOM     2   C11 UNL     1       1.745  -0.649   0.463  1.00  0.00     0.046 A   
ATOM     3   C12 UNL     1       0.824  -0.008  -0.334  1.00  0.00     0.127 A   
ATOM     4   N3  UNL     1      -0.137   0.561   0.462  1.00  0.00    -0.132 NA  
ATOM     5   N4  UNL     1       0.171   0.314   1.724  1.00  0.00    -0.075 NA  
ATOM     6   H14 UNL     1       2.643  -1.215   0.261  1.00  0.00     0.083 HD  
ENDROOT
BRANCH   1   7
ATOM     7   C9  UNL     1       1.971  -0.816   2.988  1.00  0.00     0.156 C   
BRANCH   7   8
ATOM     8   C8  UNL     1       1.876  -2.331   3.219  1.00  0.00    -0.017 A   
ATOM     9   C2  UNL     1       0.635  -3.019   3.325  1.00  0.00    -0.046 A   
ATOM     10  C3  UNL     1       0.626  -4.415   3.510  1.00  0.00     0.004 A   
ATOM     11  C4  UNL     1       1.806  -5.136   3.622  1.00  0.00     0.001 A   
ATOM     12  C6  UNL     1       3.079  -3.085   3.361  1.00  0.00    -0.046 A   
ATOM     13  C5  UNL     1       3.023  -4.476   3.551  1.00  0.00     0.004 A   
ATOM     14  C1  UNL     1      -0.714  -2.358   3.205  1.00  0.00     0.045 C   
ATOM     15  C7  UNL     1       4.450  -2.455   3.313  1.00  0.00     0.045 C   
ENDBRANCH   7   8
BRANCH   7  16
ATOM     16  C10 UNL     1       1.598   0.015   4.231  1.00  0.00     0.185 C   
BRANCH  16  17
ATOM     17  O1  UNL     1       2.285   1.271   4.204  1.00  0.00    -0.394 OA  
ATOM     18  H13 UNL     1       1.996   1.770   4.991  1.00  0.00     0.210 HD  
ENDBRANCH  16  17
ENDBRANCH   7  16
ENDBRANCH   1   7
BRANCH   3  19
ATOM     19  C13 UNL     1       0.734   0.128  -1.818  1.00  0.00     0.114 C   
BRANCH  19  20
ATOM     20  C14 UNL     1       1.896   0.922  -2.449  1.00  0.00     0.064 C   
BRANCH  20  21
ATOM     21  C15 UNL     1       1.911   2.461  -2.289  1.00  0.00    -0.012 C   
ATOM     22  C16 UNL     1       3.030   3.046  -3.160  1.00  0.00     0.007 C   
ATOM     23  C17 UNL     1       2.107   2.925  -0.846  1.00  0.00     0.007 C   
ENDBRANCH  20  21
ENDBRANCH  19  20
BRANCH  19  24
ATOM     24  N2  UNL     1      -0.571   0.741  -2.240  1.00  0.00     0.249 N   
ATOM     25  H25 UNL     1      -0.507   1.174  -3.167  1.00  0.00     0.199 HD  
ATOM     26  H26 UNL     1      -0.769   1.502  -1.573  1.00  0.00     0.199 HD  
BRANCH  24  27
ATOM     27  C18 UNL     1      -1.742  -0.180  -2.214  1.00  0.00     0.164 C   
BRANCH  27  28
ATOM     28  C19 UNL     1      -3.013   0.586  -2.450  1.00  0.00    -0.002 A   
ATOM     29  C20 UNL     1      -3.683   1.194  -1.361  1.00  0.00     0.012 A   
ATOM     30  C24 UNL     1      -3.512   0.754  -3.753  1.00  0.00     0.045 A   
ATOM     31  C21 UNL     1      -4.843   1.948  -1.562  1.00  0.00     0.037 A   
ATOM     32  C23 UNL     1      -4.657   1.506  -3.916  1.00  0.00     0.109 A   
ATOM     33  C22 UNL     1      -5.305   2.085  -2.852  1.00  0.00     0.108 A   
ATOM     34  O2  UNL     1      -5.269   1.768  -5.101  1.00  0.00    -0.316 OA  
ATOM     35  O3  UNL     1      -6.409   2.779  -3.232  1.00  0.00    -0.316 OA  
ATOM     36  C25 UNL     1      -6.392   2.566  -4.660  1.00  0.00     0.337 C   
ENDBRANCH  27  28
ENDBRANCH  24  27
ENDBRANCH  19  24
ENDBRANCH   3  19
TORSDOF 10
