REMARK SMILES Cc1cccc(C)c1[C@@H](CO)n1cc([C@H](CC(C)C)[NH2+]Cc2ccc3c(c2)OCO3)nn1
REMARK SMILES IDX 12 1 13 2 14 3 31 4 32 5 9 7 8 8 2 9 3 10 4 11 6 12 5 13
REMARK SMILES IDX 1 14 7 15 10 16 11 17 15 19 16 20 17 21 18 22 19 23 20 24
REMARK SMILES IDX 21 27 22 28 23 29 27 30 24 31 26 32 25 33 28 34 30 35 29 36
REMARK H PARENT 13 6 11 18 20 25 20 26
ROOT
ATOM     1   N1  UNL     1      -2.085   1.135   0.528  1.00  0.00    -0.202 N   
ATOM     2   C11 UNL     1      -0.939   0.901  -0.192  1.00  0.00     0.046 A   
ATOM     3   C12 UNL     1      -0.834  -0.471  -0.222  1.00  0.00     0.127 A   
ATOM     4   N3  UNL     1      -1.865  -1.017   0.500  1.00  0.00    -0.132 NA  
ATOM     5   N4  UNL     1      -2.603  -0.029   0.978  1.00  0.00    -0.075 NA  
ATOM     6   H14 UNL     1      -0.351   1.705  -0.613  1.00  0.00     0.083 HD  
ENDROOT
BRANCH   1   7
ATOM     7   C9  UNL     1      -2.655   2.436   0.898  1.00  0.00     0.156 C   
BRANCH   7   8
ATOM     8   C8  UNL     1      -2.981   3.291  -0.334  1.00  0.00    -0.017 A   
ATOM     9   C2  UNL     1      -3.783   2.818  -1.411  1.00  0.00    -0.046 A   
ATOM     10  C3  UNL     1      -4.017   3.652  -2.520  1.00  0.00     0.004 A   
ATOM     11  C4  UNL     1      -3.510   4.944  -2.572  1.00  0.00     0.001 A   
ATOM     12  C6  UNL     1      -2.490   4.628  -0.391  1.00  0.00    -0.046 A   
ATOM     13  C5  UNL     1      -2.756   5.429  -1.514  1.00  0.00     0.004 A   
ATOM     14  C1  UNL     1      -4.379   1.435  -1.484  1.00  0.00     0.045 C   
ATOM     15  C7  UNL     1      -1.674   5.247   0.718  1.00  0.00     0.045 C   
ENDBRANCH   7   8
BRANCH   7  16
ATOM     16  C10 UNL     1      -3.837   2.366   1.885  1.00  0.00     0.185 C   
BRANCH  16  17
ATOM     17  O1  UNL     1      -3.418   1.853   3.153  1.00  0.00    -0.394 OA  
ATOM     18  H13 UNL     1      -3.362   0.883   3.056  1.00  0.00     0.210 HD  
ENDBRANCH  16  17
ENDBRANCH   7  16
ENDBRANCH   1   7
BRANCH   3  19
ATOM     19  C13 UNL     1       0.177  -1.368  -0.864  1.00  0.00     0.114 C   
BRANCH  19  20
ATOM     20  C14 UNL     1      -0.177  -1.617  -2.344  1.00  0.00     0.064 C   
BRANCH  20  21
ATOM     21  C15 UNL     1       0.868  -2.399  -3.171  1.00  0.00    -0.012 C   
ATOM     22  C16 UNL     1       2.227  -1.698  -3.210  1.00  0.00     0.007 C   
ATOM     23  C17 UNL     1       0.349  -2.593  -4.599  1.00  0.00     0.007 C   
ENDBRANCH  20  21
ENDBRANCH  19  20
BRANCH  19  24
ATOM     24  N2  UNL     1       0.219  -2.693  -0.141  1.00  0.00     0.249 N   
ATOM     25  H25 UNL     1      -0.763  -2.939   0.056  1.00  0.00     0.199 HD  
ATOM     26  H26 UNL     1       0.596  -3.433  -0.737  1.00  0.00     0.199 HD  
BRANCH  24  27
ATOM     27  C18 UNL     1       0.951  -2.703   1.159  1.00  0.00     0.164 C   
BRANCH  27  28
ATOM     28  C19 UNL     1       2.443  -2.688   0.969  1.00  0.00    -0.002 A   
ATOM     29  C20 UNL     1       3.118  -3.849   0.520  1.00  0.00     0.012 A   
ATOM     30  C24 UNL     1       3.174  -1.509   1.196  1.00  0.00     0.045 A   
ATOM     31  C21 UNL     1       4.498  -3.836   0.292  1.00  0.00     0.037 A   
ATOM     32  C23 UNL     1       4.532  -1.530   0.960  1.00  0.00     0.109 A   
ATOM     33  C22 UNL     1       5.176  -2.659   0.519  1.00  0.00     0.108 A   
ATOM     34  O2  UNL     1       5.378  -0.479   1.118  1.00  0.00    -0.316 OA  
ATOM     35  O3  UNL     1       6.508  -2.463   0.345  1.00  0.00    -0.316 OA  
ATOM     36  C25 UNL     1       6.641  -1.087   0.764  1.00  0.00     0.337 C   
ENDBRANCH  27  28
ENDBRANCH  24  27
ENDBRANCH  19  24
ENDBRANCH   3  19
TORSDOF 10
