REMARK SMILES Cc1c(Cl)ccnc1Cn1cc([C@H](CC(C)C)[NH2+]Cc2ccc3c(c2)OCO3)nn1
REMARK SMILES IDX 10 1 11 2 12 3 29 4 30 5 9 7 8 8 2 9 3 10 5 11 7 12 6 13
REMARK SMILES IDX 1 14 4 15 13 16 14 17 15 18 16 19 17 20 18 21 19 24 20 25
REMARK SMILES IDX 21 26 25 27 22 28 24 29 23 30 26 31 28 32 27 33
REMARK H PARENT 11 6 18 22 18 23
ROOT
ATOM     1   N2  UNL     1       0.214   3.770   0.661  1.00  0.00    -0.206 N   
ATOM     2   C8  UNL     1       1.142   2.817   0.985  1.00  0.00     0.046 A   
ATOM     3   C9  UNL     1       0.895   1.794   0.097  1.00  0.00     0.127 A   
ATOM     4   N4  UNL     1      -0.147   2.152  -0.722  1.00  0.00    -0.132 NA  
ATOM     5   N5  UNL     1      -0.557   3.358  -0.365  1.00  0.00    -0.076 NA  
ATOM     6   H8  UNL     1       1.849   2.956   1.792  1.00  0.00     0.083 HD  
ENDROOT
BRANCH   1   7
ATOM     7   C7  UNL     1       0.021   5.075   1.265  1.00  0.00     0.190 C   
BRANCH   7   8
ATOM     8   C6  UNL     1      -0.719   4.944   2.571  1.00  0.00     0.064 A   
ATOM     9   C2  UNL     1      -2.116   4.867   2.668  1.00  0.00    -0.009 A   
ATOM     10  C3  UNL     1      -2.651   4.692   3.956  1.00  0.00     0.047 A   
ATOM     11  C4  UNL     1      -1.829   4.634   5.076  1.00  0.00     0.041 A   
ATOM     12  N1  UNL     1       0.093   4.862   3.663  1.00  0.00    -0.259 NA  
ATOM     13  C5  UNL     1      -0.471   4.730   4.880  1.00  0.00     0.113 A   
ATOM     14  C1  UNL     1      -3.023   4.912   1.468  1.00  0.00     0.048 C   
ATOM     15  CL1 UNL     1      -4.352   4.516   4.218  1.00  0.00    -0.084 Cl  
ENDBRANCH   7   8
ENDBRANCH   1   7
BRANCH   3  16
ATOM     16  C10 UNL     1       1.531   0.450  -0.061  1.00  0.00     0.114 C   
BRANCH  16  17
ATOM     17  C11 UNL     1       2.731   0.527  -1.026  1.00  0.00     0.064 C   
BRANCH  17  18
ATOM     18  C12 UNL     1       3.529  -0.777  -1.241  1.00  0.00    -0.012 C   
ATOM     19  C13 UNL     1       4.052  -1.369   0.068  1.00  0.00     0.007 C   
ATOM     20  C14 UNL     1       4.700  -0.510  -2.192  1.00  0.00     0.007 C   
ENDBRANCH  17  18
ENDBRANCH  16  17
BRANCH  16  21
ATOM     21  N3  UNL     1       0.528  -0.538  -0.592  1.00  0.00     0.249 N   
ATOM     22  H19 UNL     1       0.057  -0.084  -1.389  1.00  0.00     0.199 HD  
ATOM     23  H20 UNL     1       0.975  -1.381  -0.963  1.00  0.00     0.199 HD  
BRANCH  21  24
ATOM     24  C15 UNL     1      -0.529  -0.950   0.373  1.00  0.00     0.164 C   
BRANCH  24  25
ATOM     25  C16 UNL     1      -1.501  -1.887  -0.286  1.00  0.00    -0.002 A   
ATOM     26  C17 UNL     1      -2.607  -1.372  -1.004  1.00  0.00     0.012 A   
ATOM     27  C21 UNL     1      -1.288  -3.275  -0.243  1.00  0.00     0.045 A   
ATOM     28  C18 UNL     1      -3.498  -2.227  -1.661  1.00  0.00     0.037 A   
ATOM     29  C20 UNL     1      -2.185  -4.090  -0.902  1.00  0.00     0.109 A   
ATOM     30  C19 UNL     1      -3.259  -3.582  -1.591  1.00  0.00     0.108 A   
ATOM     31  O1  UNL     1      -2.126  -5.446  -0.959  1.00  0.00    -0.316 OA  
ATOM     32  O2  UNL     1      -4.012  -4.554  -2.167  1.00  0.00    -0.316 OA  
ATOM     33  C22 UNL     1      -3.307  -5.739  -1.740  1.00  0.00     0.337 C   
ENDBRANCH  24  25
ENDBRANCH  21  24
ENDBRANCH  16  21
ENDBRANCH   3  16
TORSDOF 8
