REMARK SMILES COc1ccnc(CCn2cc([C@@H]([NH2+]Cc3ccc4c(c3)OCO4)C3CCCCC3)nn2)c1
REMARK SMILES IDX 10 1 11 2 12 3 31 4 32 5 9 7 8 8 7 9 3 10 4 11 33 12 5 13
REMARK SMILES IDX 6 14 2 15 1 16 13 17 14 18 15 21 16 22 17 23 21 24 18 25
REMARK SMILES IDX 20 26 19 27 22 28 24 29 23 30 25 31 26 32 30 33 27 34 29 35
REMARK SMILES IDX 28 36
REMARK H PARENT 11 6 14 19 14 20
ROOT
ATOM     1   N2  UNL     1      -2.632   1.851  -1.929  1.00  0.00    -0.212 N   
ATOM     2   C8  UNL     1      -1.996   2.691  -1.058  1.00  0.00     0.045 A   
ATOM     3   C9  UNL     1      -1.699   1.891   0.024  1.00  0.00     0.127 A   
ATOM     4   N4  UNL     1      -2.236   0.640  -0.194  1.00  0.00    -0.132 NA  
ATOM     5   N5  UNL     1      -2.808   0.633  -1.385  1.00  0.00    -0.076 NA  
ATOM     6   H10 UNL     1      -1.771   3.715  -1.326  1.00  0.00     0.083 HD  
ENDROOT
BRANCH   1   7
ATOM     7   C7  UNL     1      -2.998   2.109  -3.309  1.00  0.00     0.140 C   
BRANCH   7   8
ATOM     8   C6  UNL     1      -2.140   1.318  -4.297  1.00  0.00     0.077 C   
BRANCH   8   9
ATOM     9   C5  UNL     1      -0.666   1.613  -4.146  1.00  0.00     0.045 A   
ATOM     10  C2  UNL     1       1.601   0.891  -3.864  1.00  0.00     0.078 A   
ATOM     11  C3  UNL     1       1.985   2.230  -3.851  1.00  0.00     0.053 A   
ATOM     12  C25 UNL     1       0.256   0.573  -4.028  1.00  0.00     0.057 A   
ATOM     13  C4  UNL     1       1.012   3.197  -3.995  1.00  0.00     0.114 A   
ATOM     14  N1  UNL     1      -0.304   2.918  -4.121  1.00  0.00    -0.261 NA  
BRANCH  10  15
ATOM     15  O1  UNL     1       2.619  -0.001  -3.685  1.00  0.00    -0.349 OA  
ATOM     16  C1  UNL     1       2.331  -1.374  -3.929  1.00  0.00     0.203 C   
ENDBRANCH  10  15
ENDBRANCH   8   9
ENDBRANCH   7   8
ENDBRANCH   1   7
BRANCH   3  17
ATOM     17  C10 UNL     1      -0.947   2.125   1.303  1.00  0.00     0.117 C   
BRANCH  17  18
ATOM     18  N3  UNL     1      -0.664   0.770   1.918  1.00  0.00     0.249 N   
ATOM     19  H12 UNL     1       0.137   0.334   1.453  1.00  0.00     0.199 HD  
ATOM     20  H13 UNL     1      -1.449   0.161   1.637  1.00  0.00     0.199 HD  
BRANCH  18  21
ATOM     21  C11 UNL     1      -0.540   0.692   3.393  1.00  0.00     0.164 C   
BRANCH  21  22
ATOM     22  C12 UNL     1      -0.078  -0.677   3.803  1.00  0.00    -0.002 A   
ATOM     23  C13 UNL     1       1.306  -0.953   3.925  1.00  0.00     0.012 A   
ATOM     24  C17 UNL     1      -1.012  -1.708   4.000  1.00  0.00     0.045 A   
ATOM     25  C14 UNL     1       1.754  -2.236   4.253  1.00  0.00     0.037 A   
ATOM     26  C16 UNL     1      -0.536  -2.961   4.323  1.00  0.00     0.109 A   
ATOM     27  C15 UNL     1       0.807  -3.218   4.445  1.00  0.00     0.108 A   
ATOM     28  O2  UNL     1      -1.299  -4.064   4.547  1.00  0.00    -0.316 OA  
ATOM     29  O3  UNL     1       1.058  -4.514   4.766  1.00  0.00    -0.316 OA  
ATOM     30  C18 UNL     1      -0.283  -5.043   4.852  1.00  0.00     0.337 C   
ENDBRANCH  21  22
ENDBRANCH  18  21
ENDBRANCH  17  18
BRANCH  17  31
ATOM     31  C19 UNL     1       0.393   2.902   1.183  1.00  0.00     0.043 C   
ATOM     32  C20 UNL     1       0.170   4.422   1.045  1.00  0.00     0.010 C   
ATOM     33  C24 UNL     1       1.329   2.390   0.072  1.00  0.00     0.010 C   
ATOM     34  C21 UNL     1       1.494   5.187   1.012  1.00  0.00     0.001 C   
ATOM     35  C23 UNL     1       2.645   3.169   0.040  1.00  0.00     0.001 C   
ATOM     36  C22 UNL     1       2.412   4.670  -0.091  1.00  0.00     0.000 C   
ENDBRANCH  17  31
ENDBRANCH   3  17
TORSDOF 9
