REMARK SMILES Fc1cc(Cn2cc([C@@H]([NH2+]Cc3ccc4c(c3)OCO4)C3CCCC3)nn2)c(Cl)cn1
REMARK SMILES IDX 6 1 7 2 8 3 26 4 27 5 5 7 4 8 2 9 3 10 31 11 30 12 28 13
REMARK SMILES IDX 1 14 29 15 9 16 10 17 11 20 12 21 13 22 17 23 14 24 16 25
REMARK SMILES IDX 15 26 18 27 20 28 19 29 21 30 22 31 25 32 23 33 24 34
REMARK H PARENT 7 6 10 18 10 19
ROOT
ATOM     1   N1  UNL     1       1.078  -0.828   1.387  1.00  0.00    -0.208 N   
ATOM     2   C5  UNL     1       1.006  -0.794   0.022  1.00  0.00     0.046 A   
ATOM     3   C6  UNL     1       0.915   0.549  -0.271  1.00  0.00     0.127 A   
ATOM     4   N3  UNL     1       0.944   1.269   0.896  1.00  0.00    -0.132 NA  
ATOM     5   N4  UNL     1       1.052   0.418   1.901  1.00  0.00    -0.076 NA  
ATOM     6   H4  UNL     1       1.000  -1.689  -0.584  1.00  0.00     0.083 HD  
ENDROOT
BRANCH   1   7
ATOM     7   C4  UNL     1       1.167  -1.984   2.264  1.00  0.00     0.171 C   
BRANCH   7   8
ATOM     8   C3  UNL     1      -0.168  -2.285   2.896  1.00  0.00    -0.004 A   
ATOM     9   C1  UNL     1      -1.746  -1.911   4.678  1.00  0.00     0.213 A   
ATOM     10  C2  UNL     1      -0.502  -1.673   4.116  1.00  0.00     0.067 A   
ATOM     11  N5  UNL     1      -2.677  -2.706   4.120  1.00  0.00    -0.227 NA  
ATOM     12  C22 UNL     1      -2.344  -3.296   2.949  1.00  0.00     0.135 A   
ATOM     13  C21 UNL     1      -1.125  -3.117   2.301  1.00  0.00     0.064 A   
ATOM     14  F1  UNL     1      -2.052  -1.306   5.833  1.00  0.00    -0.185 F   
ATOM     15  CL1 UNL     1      -0.854  -3.911   0.798  1.00  0.00    -0.082 Cl  
ENDBRANCH   7   8
ENDBRANCH   1   7
BRANCH   3  16
ATOM     16  C7  UNL     1       0.722   1.278  -1.562  1.00  0.00     0.117 C   
BRANCH  16  17
ATOM     17  N2  UNL     1      -0.247   2.421  -1.317  1.00  0.00     0.249 N   
ATOM     18  H6  UNL     1      -0.259   2.565  -0.294  1.00  0.00     0.199 HD  
ATOM     19  H7  UNL     1       0.114   3.300  -1.698  1.00  0.00     0.199 HD  
BRANCH  17  20
ATOM     20  C8  UNL     1      -1.647   2.218  -1.780  1.00  0.00     0.164 C   
BRANCH  20  21
ATOM     21  C9  UNL     1      -2.321   1.003  -1.205  1.00  0.00    -0.002 A   
ATOM     22  C10 UNL     1      -2.639   0.934   0.174  1.00  0.00     0.012 A   
ATOM     23  C14 UNL     1      -2.632  -0.086  -2.038  1.00  0.00     0.045 A   
ATOM     24  C11 UNL     1      -3.253  -0.202   0.715  1.00  0.00     0.037 A   
ATOM     25  C13 UNL     1      -3.239  -1.188  -1.473  1.00  0.00     0.109 A   
ATOM     26  C12 UNL     1      -3.542  -1.245  -0.136  1.00  0.00     0.108 A   
ATOM     27  O1  UNL     1      -3.601  -2.316  -2.138  1.00  0.00    -0.316 OA  
ATOM     28  O2  UNL     1      -4.136  -2.417   0.210  1.00  0.00    -0.316 OA  
ATOM     29  C15 UNL     1      -4.221  -3.073  -1.074  1.00  0.00     0.337 C   
ENDBRANCH  20  21
ENDBRANCH  17  20
ENDBRANCH  16  17
BRANCH  16  30
ATOM     30  C16 UNL     1       2.038   1.855  -2.114  1.00  0.00     0.043 C   
ATOM     31  C17 UNL     1       3.086   0.784  -2.434  1.00  0.00     0.010 C   
ATOM     32  C20 UNL     1       1.890   2.551  -3.471  1.00  0.00     0.010 C   
ATOM     33  C18 UNL     1       4.084   1.491  -3.344  1.00  0.00     0.001 C   
ATOM     34  C19 UNL     1       3.308   2.614  -4.027  1.00  0.00     0.001 C   
ENDBRANCH  16  30
ENDBRANCH   3  16
TORSDOF 7
