REMARK SMILES COCc1ccoc1Cn1cc([C@@H]([NH2+]Cc2ccc3c(c2)OCO3)C(C)(C)C)nn1
REMARK SMILES IDX 10 1 11 2 12 3 29 4 30 5 9 7 8 8 4 9 5 10 6 11 7 12 3 13
REMARK SMILES IDX 2 14 1 15 13 16 14 17 15 20 16 21 17 22 21 23 18 24 20 25
REMARK SMILES IDX 19 26 22 27 24 28 23 29 25 30 26 31 27 32 28 33
REMARK H PARENT 11 6 14 18 14 19
ROOT
ATOM     1   N1  UNL     1       1.125   2.564  -0.107  1.00  0.00    -0.206 N   
ATOM     2   C8  UNL     1      -0.121   2.415   0.439  1.00  0.00     0.046 A   
ATOM     3   C9  UNL     1       0.029   1.373   1.328  1.00  0.00     0.127 A   
ATOM     4   N3  UNL     1       1.345   0.984   1.350  1.00  0.00    -0.132 NA  
ATOM     5   N4  UNL     1       2.004   1.718   0.470  1.00  0.00    -0.076 NA  
ATOM     6   H10 UNL     1      -0.974   2.988   0.099  1.00  0.00     0.083 HD  
ENDROOT
BRANCH   1   7
ATOM     7   C7  UNL     1       1.553   3.437  -1.186  1.00  0.00     0.196 C   
BRANCH   7   8
ATOM     8   C6  UNL     1       0.609   3.405  -2.333  1.00  0.00     0.083 A   
ATOM     9   C3  UNL     1       0.073   2.402  -3.130  1.00  0.00     0.008 A   
ATOM     10  C4  UNL     1      -0.737   3.076  -4.091  1.00  0.00     0.034 A   
ATOM     11  C5  UNL     1      -0.661   4.414  -3.805  1.00  0.00     0.136 A   
ATOM     12  O2  UNL     1       0.150   4.621  -2.739  1.00  0.00    -0.320 OA  
BRANCH   9  13
ATOM     13  C2  UNL     1       0.294   0.929  -3.032  1.00  0.00     0.197 C   
BRANCH  13  14
ATOM     14  O1  UNL     1      -0.613   0.297  -2.111  1.00  0.00    -0.380 OA  
ATOM     15  C1  UNL     1      -1.878   0.025  -2.711  1.00  0.00     0.195 C   
ENDBRANCH  13  14
ENDBRANCH   9  13
ENDBRANCH   7   8
ENDBRANCH   1   7
BRANCH   3  16
ATOM     16  C10 UNL     1      -0.985   0.587   2.098  1.00  0.00     0.120 C   
BRANCH  16  17
ATOM     17  N2  UNL     1      -0.583  -0.871   2.074  1.00  0.00     0.250 N   
ATOM     18  H12 UNL     1       0.404  -0.911   2.364  1.00  0.00     0.199 HD  
ATOM     19  H13 UNL     1      -1.111  -1.432   2.744  1.00  0.00     0.199 HD  
BRANCH  17  20
ATOM     20  C11 UNL     1      -0.657  -1.527   0.736  1.00  0.00     0.164 C   
BRANCH  20  21
ATOM     21  C12 UNL     1      -0.289  -2.980   0.847  1.00  0.00    -0.002 A   
ATOM     22  C13 UNL     1       1.071  -3.372   0.789  1.00  0.00     0.012 A   
ATOM     23  C17 UNL     1      -1.281  -3.948   1.067  1.00  0.00     0.045 A   
ATOM     24  C14 UNL     1       1.439  -4.710   0.943  1.00  0.00     0.037 A   
ATOM     25  C16 UNL     1      -0.883  -5.258   1.217  1.00  0.00     0.109 A   
ATOM     26  C15 UNL     1       0.438  -5.628   1.157  1.00  0.00     0.108 A   
ATOM     27  O3  UNL     1      -1.710  -6.313   1.441  1.00  0.00    -0.316 OA  
ATOM     28  O4  UNL     1       0.610  -6.963   1.335  1.00  0.00    -0.316 OA  
ATOM     29  C18 UNL     1      -0.752  -7.392   1.549  1.00  0.00     0.337 C   
ENDBRANCH  20  21
ENDBRANCH  17  20
ENDBRANCH  16  17
BRANCH  16  30
ATOM     30  C19 UNL     1      -1.200   1.072   3.573  1.00  0.00     0.010 C   
ATOM     31  C20 UNL     1       0.055   0.897   4.450  1.00  0.00     0.017 C   
ATOM     32  C21 UNL     1      -1.600   2.565   3.590  1.00  0.00     0.017 C   
ATOM     33  C22 UNL     1      -2.363   0.290   4.229  1.00  0.00     0.017 C   
ENDBRANCH  16  30
ENDBRANCH   3  16
TORSDOF 9
