REMARK SMILES Cc1nc(Cn2cc([C@@H]([NH2+]Cc3ccc4c(c3)OCO4)C3CCCCC3)nn2)oc1C
REMARK SMILES IDX 6 1 7 2 8 3 27 4 28 5 5 7 4 8 2 9 3 10 30 11 29 12 1 13
REMARK SMILES IDX 31 14 9 15 10 16 11 19 12 20 13 21 17 22 14 23 16 24 15 25
REMARK SMILES IDX 18 26 20 27 19 28 21 29 22 30 26 31 23 32 25 33 24 34
REMARK H PARENT 7 6 10 17 10 18
ROOT
ATOM     1   N2  UNL     1       1.819  -0.002  -1.990  1.00  0.00    -0.204 N   
ATOM     2   C5  UNL     1       1.470  -0.060  -0.666  1.00  0.00     0.046 A   
ATOM     3   C6  UNL     1       0.905   1.170  -0.414  1.00  0.00     0.127 A   
ATOM     4   N4  UNL     1       1.007   1.948  -1.540  1.00  0.00    -0.132 NA  
ATOM     5   N5  UNL     1       1.589   1.230  -2.487  1.00  0.00    -0.075 NA  
ATOM     6   H6  UNL     1       1.603  -0.957  -0.075  1.00  0.00     0.083 HD  
ENDROOT
BRANCH   1   7
ATOM     7   C4  UNL     1       2.422  -1.036  -2.810  1.00  0.00     0.217 C   
BRANCH   7   8
ATOM     8   C3  UNL     1       1.449  -2.128  -3.035  1.00  0.00     0.167 A   
ATOM     9   C2  UNL     1       0.100  -3.768  -2.912  1.00  0.00     0.066 A   
ATOM     10  N1  UNL     1       0.906  -2.947  -2.153  1.00  0.00    -0.229 NA  
ATOM     11  C22 UNL     1       0.192  -3.402  -4.239  1.00  0.00     0.079 A   
ATOM     12  O3  UNL     1       1.058  -2.349  -4.326  1.00  0.00    -0.297 OA  
ATOM     13  C1  UNL     1      -0.695  -4.849  -2.294  1.00  0.00     0.069 C   
ATOM     14  C23 UNL     1      -0.404  -3.883  -5.497  1.00  0.00     0.075 C   
ENDBRANCH   7   8
ENDBRANCH   1   7
BRANCH   3  15
ATOM     15  C7  UNL     1       0.286   1.738   0.821  1.00  0.00     0.117 C   
BRANCH  15  16
ATOM     16  N3  UNL     1       0.465   3.243   0.843  1.00  0.00     0.249 N   
ATOM     17  H8  UNL     1      -0.188   3.671   1.507  1.00  0.00     0.199 HD  
ATOM     18  H9  UNL     1       0.207   3.574  -0.097  1.00  0.00     0.199 HD  
BRANCH  16  19
ATOM     19  C8  UNL     1       1.845   3.740   1.117  1.00  0.00     0.164 C   
BRANCH  19  20
ATOM     20  C9  UNL     1       2.289   3.482   2.530  1.00  0.00    -0.002 A   
ATOM     21  C10 UNL     1       3.280   2.507   2.799  1.00  0.00     0.012 A   
ATOM     22  C14 UNL     1       1.707   4.188   3.597  1.00  0.00     0.045 A   
ATOM     23  C11 UNL     1       3.682   2.233   4.111  1.00  0.00     0.037 A   
ATOM     24  C13 UNL     1       2.125   3.892   4.878  1.00  0.00     0.109 A   
ATOM     25  C12 UNL     1       3.083   2.942   5.129  1.00  0.00     0.108 A   
ATOM     26  O1  UNL     1       1.662   4.476   6.014  1.00  0.00    -0.316 OA  
ATOM     27  O2  UNL     1       3.345   2.807   6.454  1.00  0.00    -0.316 OA  
ATOM     28  C15 UNL     1       2.462   3.803   7.013  1.00  0.00     0.337 C   
ENDBRANCH  19  20
ENDBRANCH  16  19
ENDBRANCH  15  16
BRANCH  15  29
ATOM     29  C16 UNL     1      -1.229   1.430   0.975  1.00  0.00     0.043 C   
ATOM     30  C17 UNL     1      -2.101   1.944  -0.187  1.00  0.00     0.010 C   
ATOM     31  C21 UNL     1      -1.485  -0.073   1.206  1.00  0.00     0.010 C   
ATOM     32  C18 UNL     1      -3.582   1.643   0.043  1.00  0.00     0.001 C   
ATOM     33  C20 UNL     1      -2.966  -0.363   1.441  1.00  0.00     0.001 C   
ATOM     34  C19 UNL     1      -3.826   0.159   0.295  1.00  0.00     0.000 C   
ENDBRANCH  15  29
ENDBRANCH   3  15
TORSDOF 7
