REMARK SMILES O=C(c1ccncc1)n1cc([C@@H]([NH2+]Cc2ccc3c(c2)OCO3)C2CCCC2)nn1
REMARK SMILES IDX 12 1 11 2 9 3 10 4 30 5 29 6 2 7 1 8 3 9 4 10 8 11 5 12 7 13
REMARK SMILES IDX 6 14 13 15 14 18 15 19 16 20 20 21 17 22 19 23 18 24 21 25
REMARK SMILES IDX 23 26 22 27 24 28 25 29 28 30 26 31 27 32
REMARK H PARENT 13 16 13 17
ROOT
ATOM     1   C9  UNL     1       1.241   0.945   0.872  1.00  0.00     0.117 C   
ENDROOT
BRANCH   1   2
ATOM     2   C8  UNL     1      -0.016   0.766   0.081  1.00  0.00     0.128 A   
ATOM     3   N2  UNL     1      -2.021   0.349  -0.703  1.00  0.00    -0.143 N   
ATOM     4   C7  UNL     1      -1.270   0.348   0.460  1.00  0.00     0.139 A   
ATOM     5   N5  UNL     1      -1.221   0.703  -1.740  1.00  0.00    -0.068 NA  
ATOM     6   N4  UNL     1      -0.010   0.969  -1.273  1.00  0.00    -0.131 NA  
BRANCH   3   7
ATOM     7   C1  UNL     1      -3.367  -0.013  -0.870  1.00  0.00     0.271 C   
ATOM     8   O1  UNL     1      -3.931  -0.435   0.140  1.00  0.00    -0.269 OA  
BRANCH   7   9
ATOM     9   C2  UNL     1      -4.139   0.048  -2.140  1.00  0.00     0.043 A   
ATOM     10  C3  UNL     1      -3.865   0.971  -3.148  1.00  0.00     0.034 A   
ATOM     11  C6  UNL     1      -5.208  -0.840  -2.297  1.00  0.00     0.034 A   
ATOM     12  C4  UNL     1      -4.654   0.944  -4.285  1.00  0.00     0.112 A   
ATOM     13  C5  UNL     1      -5.937  -0.787  -3.470  1.00  0.00     0.112 A   
ATOM     14  N1  UNL     1      -5.674   0.081  -4.467  1.00  0.00    -0.265 NA  
ENDBRANCH   7   9
ENDBRANCH   3   7
ENDBRANCH   1   2
BRANCH   1  15
ATOM     15  N3  UNL     1       2.449   0.578   0.034  1.00  0.00     0.249 N   
ATOM     16  H7  UNL     1       3.305   0.910   0.490  1.00  0.00     0.199 HD  
ATOM     17  H8  UNL     1       2.360   1.091  -0.854  1.00  0.00     0.199 HD  
BRANCH  15  18
ATOM     18  C10 UNL     1       2.614  -0.869  -0.301  1.00  0.00     0.164 C   
BRANCH  18  19
ATOM     19  C11 UNL     1       2.936  -1.713   0.900  1.00  0.00    -0.002 A   
ATOM     20  C12 UNL     1       4.223  -1.664   1.488  1.00  0.00     0.012 A   
ATOM     21  C16 UNL     1       1.948  -2.535   1.469  1.00  0.00     0.045 A   
ATOM     22  C13 UNL     1       4.522  -2.417   2.628  1.00  0.00     0.037 A   
ATOM     23  C15 UNL     1       2.275  -3.263   2.594  1.00  0.00     0.109 A   
ATOM     24  C14 UNL     1       3.524  -3.205   3.158  1.00  0.00     0.108 A   
ATOM     25  O2  UNL     1       1.438  -4.094   3.268  1.00  0.00    -0.316 OA  
ATOM     26  O3  UNL     1       3.634  -3.996   4.257  1.00  0.00    -0.316 OA  
ATOM     27  C17 UNL     1       2.316  -4.584   4.308  1.00  0.00     0.337 C   
ENDBRANCH  18  19
ENDBRANCH  15  18
ENDBRANCH   1  15
BRANCH   1  28
ATOM     28  C18 UNL     1       1.466   2.373   1.408  1.00  0.00     0.043 C   
ATOM     29  C19 UNL     1       0.371   2.894   2.340  1.00  0.00     0.010 C   
ATOM     30  C22 UNL     1       1.561   3.491   0.366  1.00  0.00     0.010 C   
ATOM     31  C20 UNL     1       0.703   4.375   2.482  1.00  0.00     0.001 C   
ATOM     32  C21 UNL     1       1.379   4.778   1.171  1.00  0.00     0.001 C   
ENDBRANCH   1  28
TORSDOF 7
