REMARK SMILES O=C1c2ccccc2C[C@H]1n1cc([C@@H]([NH2+]Cc2ccc3c(c2)OCO3)C2CCCCC2)nn1
REMARK SMILES IDX 14 1 13 2 11 3 12 4 33 5 32 6 10 8 2 9 3 10 4 11 8 12 9 13
REMARK SMILES IDX 5 14 7 15 6 16 1 17 15 18 16 21 17 22 18 23 22 24 19 25
REMARK SMILES IDX 21 26 20 27 23 28 25 29 24 30 26 31 27 32 31 33 28 34 30 35
REMARK SMILES IDX 29 36
REMARK H PARENT 12 7 15 19 15 20
ROOT
ATOM     1   C12 UNL     1       0.372  -1.526  -0.575  1.00  0.00     0.117 C   
ENDROOT
BRANCH   1   2
ATOM     2   C11 UNL     1      -0.936  -1.054  -1.124  1.00  0.00     0.127 A   
ATOM     3   N1  UNL     1      -2.752   0.011  -1.621  1.00  0.00    -0.201 N   
ATOM     4   C10 UNL     1      -1.456   0.217  -1.236  1.00  0.00     0.046 A   
ATOM     5   N4  UNL     1      -2.990  -1.301  -1.810  1.00  0.00    -0.075 NA  
ATOM     6   N3  UNL     1      -1.888  -1.964  -1.499  1.00  0.00    -0.132 NA  
ATOM     7   H8  UNL     1      -1.057   1.198  -1.016  1.00  0.00     0.083 HD  
BRANCH   3   8
ATOM     8   C9  UNL     1      -3.827   0.968  -1.763  1.00  0.00     0.176 C   
ATOM     9   C1  UNL     1      -3.766   2.045  -0.703  1.00  0.00     0.185 C   
ATOM     10  C2  UNL     1      -3.956   3.342  -1.337  1.00  0.00     0.023 A   
ATOM     11  C3  UNL     1      -4.072   4.584  -0.742  1.00  0.00     0.012 A   
ATOM     12  C7  UNL     1      -3.994   3.154  -2.716  1.00  0.00    -0.035 A   
ATOM     13  C8  UNL     1      -3.809   1.720  -3.107  1.00  0.00     0.069 C   
ATOM     14  C4  UNL     1      -4.239   5.684  -1.584  1.00  0.00     0.001 A   
ATOM     15  C6  UNL     1      -4.159   4.244  -3.554  1.00  0.00     0.004 A   
ATOM     16  C5  UNL     1      -4.284   5.514  -2.979  1.00  0.00     0.000 A   
ATOM     17  O1  UNL     1      -3.563   1.888   0.489  1.00  0.00    -0.292 OA  
ENDBRANCH   3   8
ENDBRANCH   1   2
BRANCH   1  18
ATOM     18  N2  UNL     1       0.108  -2.582   0.483  1.00  0.00     0.249 N   
ATOM     19  H10 UNL     1       0.986  -2.973   0.828  1.00  0.00     0.199 HD  
ATOM     20  H11 UNL     1      -0.410  -3.340   0.019  1.00  0.00     0.199 HD  
BRANCH  18  21
ATOM     21  C13 UNL     1      -0.700  -2.151   1.670  1.00  0.00     0.164 C   
BRANCH  21  22
ATOM     22  C14 UNL     1      -0.072  -1.021   2.439  1.00  0.00    -0.002 A   
ATOM     23  C15 UNL     1      -0.700   0.247   2.480  1.00  0.00     0.012 A   
ATOM     24  C19 UNL     1       1.155  -1.205   3.100  1.00  0.00     0.045 A   
ATOM     25  C16 UNL     1      -0.115   1.320   3.161  1.00  0.00     0.037 A   
ATOM     26  C18 UNL     1       1.706  -0.126   3.761  1.00  0.00     0.109 A   
ATOM     27  C17 UNL     1       1.090   1.101   3.791  1.00  0.00     0.108 A   
ATOM     28  O2  UNL     1       2.882  -0.135   4.441  1.00  0.00    -0.316 OA  
ATOM     29  O3  UNL     1       1.800   2.019   4.496  1.00  0.00    -0.316 OA  
ATOM     30  C20 UNL     1       2.917   1.222   4.943  1.00  0.00     0.337 C   
ENDBRANCH  21  22
ENDBRANCH  18  21
ENDBRANCH   1  18
BRANCH   1  31
ATOM     31  C21 UNL     1       1.294  -2.126  -1.682  1.00  0.00     0.043 C   
ATOM     32  C22 UNL     1       2.632  -2.690  -1.157  1.00  0.00     0.010 C   
ATOM     33  C26 UNL     1       1.621  -1.096  -2.790  1.00  0.00     0.010 C   
ATOM     34  C23 UNL     1       3.564  -1.598  -0.634  1.00  0.00     0.001 C   
ATOM     35  C25 UNL     1       2.550   0.018  -2.305  1.00  0.00     0.001 C   
ATOM     36  C24 UNL     1       3.835  -0.539  -1.700  1.00  0.00     0.000 C   
ENDBRANCH   1  31
TORSDOF 6
