REMARK SMILES O=C1c2ccccc2C[C@@H]1n1cc([C@@H]([NH2+]Cc2ccc3c(c2)OCO3)C2CCCCC2)nn1
REMARK SMILES IDX 14 1 13 2 11 3 12 4 33 5 32 6 10 8 2 9 3 10 4 11 8 12 9 13
REMARK SMILES IDX 5 14 7 15 6 16 1 17 15 18 16 21 17 22 18 23 22 24 19 25
REMARK SMILES IDX 21 26 20 27 23 28 25 29 24 30 26 31 27 32 31 33 28 34 30 35
REMARK SMILES IDX 29 36
REMARK H PARENT 12 7 15 19 15 20
ROOT
ATOM     1   C12 UNL     1       0.204  -1.793   0.485  1.00  0.00     0.117 C   
ENDROOT
BRANCH   1   2
ATOM     2   C11 UNL     1       1.036  -0.726  -0.151  1.00  0.00     0.127 A   
ATOM     3   N1  UNL     1       1.882   1.106  -0.930  1.00  0.00    -0.201 N   
ATOM     4   C10 UNL     1       1.087   0.631   0.077  1.00  0.00     0.046 A   
ATOM     5   N4  UNL     1       2.325   0.096  -1.703  1.00  0.00    -0.075 NA  
ATOM     6   N3  UNL     1       1.824  -1.032  -1.228  1.00  0.00    -0.132 NA  
ATOM     7   H8  UNL     1       0.590   1.283   0.782  1.00  0.00     0.083 HD  
BRANCH   3   8
ATOM     8   C9  UNL     1       2.090   2.487  -1.298  1.00  0.00     0.176 C   
ATOM     9   C1  UNL     1       1.052   2.901  -2.319  1.00  0.00     0.185 C   
ATOM     10  C2  UNL     1       1.715   3.565  -3.431  1.00  0.00     0.023 A   
ATOM     11  C3  UNL     1       1.146   4.153  -4.546  1.00  0.00     0.012 A   
ATOM     12  C7  UNL     1       3.088   3.529  -3.211  1.00  0.00    -0.035 A   
ATOM     13  C8  UNL     1       3.454   2.824  -1.940  1.00  0.00     0.069 C   
ATOM     14  C4  UNL     1       2.009   4.733  -5.475  1.00  0.00     0.001 A   
ATOM     15  C6  UNL     1       3.948   4.101  -4.134  1.00  0.00     0.004 A   
ATOM     16  C5  UNL     1       3.400   4.706  -5.270  1.00  0.00     0.000 A   
ATOM     17  O1  UNL     1      -0.153   2.719  -2.241  1.00  0.00    -0.292 OA  
ENDBRANCH   3   8
ENDBRANCH   1   2
BRANCH   1  18
ATOM     18  N2  UNL     1      -0.519  -2.565  -0.604  1.00  0.00     0.249 N   
ATOM     19  H10 UNL     1       0.208  -2.959  -1.216  1.00  0.00     0.199 HD  
ATOM     20  H11 UNL     1      -1.044  -3.344  -0.204  1.00  0.00     0.199 HD  
BRANCH  18  21
ATOM     21  C13 UNL     1      -1.452  -1.780  -1.476  1.00  0.00     0.164 C   
BRANCH  21  22
ATOM     22  C14 UNL     1      -2.565  -1.116  -0.713  1.00  0.00    -0.002 A   
ATOM     23  C15 UNL     1      -2.648   0.296  -0.667  1.00  0.00     0.012 A   
ATOM     24  C19 UNL     1      -3.518  -1.887  -0.024  1.00  0.00     0.045 A   
ATOM     25  C16 UNL     1      -3.650   0.935   0.069  1.00  0.00     0.037 A   
ATOM     26  C18 UNL     1      -4.491  -1.224   0.697  1.00  0.00     0.109 A   
ATOM     27  C17 UNL     1      -4.553   0.146   0.745  1.00  0.00     0.108 A   
ATOM     28  O2  UNL     1      -5.469  -1.816   1.431  1.00  0.00    -0.316 OA  
ATOM     29  O3  UNL     1      -5.580   0.591   1.516  1.00  0.00    -0.316 OA  
ATOM     30  C20 UNL     1      -6.175  -0.657   1.932  1.00  0.00     0.337 C   
ENDBRANCH  21  22
ENDBRANCH  18  21
ENDBRANCH   1  18
BRANCH   1  31
ATOM     31  C21 UNL     1       1.056  -2.779   1.341  1.00  0.00     0.043 C   
ATOM     32  C22 UNL     1       1.794  -2.021   2.470  1.00  0.00     0.010 C   
ATOM     33  C26 UNL     1       0.210  -3.917   1.952  1.00  0.00     0.010 C   
ATOM     34  C23 UNL     1       2.602  -2.949   3.372  1.00  0.00     0.001 C   
ATOM     35  C25 UNL     1       1.024  -4.830   2.867  1.00  0.00     0.001 C   
ATOM     36  C24 UNL     1       1.734  -4.050   3.963  1.00  0.00     0.000 C   
ENDBRANCH   1  31
TORSDOF 6
