REMARK SMILES O[C@H](Cn1cc([C@@H]([NH2+]Cc2ccc3c(c2)OCO3)C2CCCC2)nn1)c1c(F)cccc1F
REMARK SMILES IDX 4 1 5 2 6 3 24 4 25 5 3 7 2 8 1 9 26 11 27 12 32 13 29 14
REMARK SMILES IDX 31 15 30 16 28 17 33 18 7 19 8 20 9 23 10 24 11 25 15 26
REMARK SMILES IDX 12 27 14 28 13 29 16 30 18 31 17 32 19 33 20 34 23 35 21 36
REMARK SMILES IDX 22 37
REMARK H PARENT 5 6 1 10 8 21 8 22
ROOT
ATOM     1   N1  UNL     1      -1.865  -0.865  -2.563  1.00  0.00    -0.209 N   
ATOM     2   C3  UNL     1      -1.656  -1.682  -1.488  1.00  0.00     0.045 A   
ATOM     3   C4  UNL     1      -0.487  -1.210  -0.936  1.00  0.00     0.127 A   
ATOM     4   N3  UNL     1       0.013  -0.211  -1.733  1.00  0.00    -0.132 NA  
ATOM     5   N4  UNL     1      -0.830  -0.021  -2.735  1.00  0.00    -0.076 NA  
ATOM     6   H5  UNL     1      -2.367  -2.444  -1.198  1.00  0.00     0.083 HD  
ENDROOT
BRANCH   1   7
ATOM     7   C2  UNL     1      -3.003  -0.835  -3.460  1.00  0.00     0.170 C   
BRANCH   7   8
ATOM     8   C1  UNL     1      -4.261  -0.223  -2.827  1.00  0.00     0.170 C   
BRANCH   8   9
ATOM     9   O1  UNL     1      -4.750  -1.087  -1.795  1.00  0.00    -0.386 OA  
ATOM     10  H1  UNL     1      -5.399  -0.586  -1.268  1.00  0.00     0.211 HD  
ENDBRANCH   8   9
BRANCH   8  11
ATOM     11  C19 UNL     1      -4.088   1.206  -2.373  1.00  0.00     0.054 A   
ATOM     12  C20 UNL     1      -3.749   1.563  -1.066  1.00  0.00     0.132 A   
ATOM     13  C24 UNL     1      -4.222   2.240  -3.304  1.00  0.00     0.132 A   
ATOM     14  C21 UNL     1      -3.576   2.896  -0.692  1.00  0.00     0.040 A   
ATOM     15  C23 UNL     1      -4.055   3.577  -2.951  1.00  0.00     0.040 A   
ATOM     16  C22 UNL     1      -3.733   3.908  -1.637  1.00  0.00     0.006 A   
ATOM     17  F1  UNL     1      -3.572   0.617  -0.133  1.00  0.00    -0.207 F   
ATOM     18  F2  UNL     1      -4.513   1.942  -4.579  1.00  0.00    -0.207 F   
ENDBRANCH   8  11
ENDBRANCH   7   8
ENDBRANCH   1   7
BRANCH   3  19
ATOM     19  C5  UNL     1       0.265  -1.621   0.287  1.00  0.00     0.117 C   
BRANCH  19  20
ATOM     20  N2  UNL     1       1.741  -1.377   0.080  1.00  0.00     0.249 N   
ATOM     21  H7  UNL     1       1.830  -0.435  -0.332  1.00  0.00     0.199 HD  
ATOM     22  H8  UNL     1       2.247  -1.354   0.970  1.00  0.00     0.199 HD  
BRANCH  20  23
ATOM     23  C6  UNL     1       2.417  -2.329  -0.844  1.00  0.00     0.164 C   
BRANCH  23  24
ATOM     24  C7  UNL     1       3.869  -1.976  -0.990  1.00  0.00    -0.002 A   
ATOM     25  C8  UNL     1       4.276  -1.025  -1.957  1.00  0.00     0.012 A   
ATOM     26  C12 UNL     1       4.827  -2.545  -0.133  1.00  0.00     0.045 A   
ATOM     27  C9  UNL     1       5.620  -0.655  -2.080  1.00  0.00     0.037 A   
ATOM     28  C11 UNL     1       6.143  -2.158  -0.281  1.00  0.00     0.109 A   
ATOM     29  C10 UNL     1       6.529  -1.241  -1.227  1.00  0.00     0.108 A   
ATOM     30  O2  UNL     1       7.187  -2.611   0.460  1.00  0.00    -0.316 OA  
ATOM     31  O3  UNL     1       7.865  -1.002  -1.203  1.00  0.00    -0.316 OA  
ATOM     32  C13 UNL     1       8.286  -1.895  -0.149  1.00  0.00     0.337 C   
ENDBRANCH  23  24
ENDBRANCH  20  23
ENDBRANCH  19  20
BRANCH  19  33
ATOM     33  C14 UNL     1      -0.153  -0.879   1.573  1.00  0.00     0.043 C   
ATOM     34  C15 UNL     1      -1.582  -1.165   2.048  1.00  0.00     0.010 C   
ATOM     35  C18 UNL     1      -0.114   0.650   1.518  1.00  0.00     0.010 C   
ATOM     36  C16 UNL     1      -1.948   0.005   2.963  1.00  0.00     0.001 C   
ATOM     37  C17 UNL     1      -0.851   1.052   2.788  1.00  0.00     0.001 C   
ENDBRANCH  19  33
ENDBRANCH   3  19
TORSDOF 9
