REMARK SMILES O[C@@H](Cn1cc([C@@H]([NH2+]Cc2ccc3c(c2)OCO3)C2CCCC2)nn1)c1c(F)cccc1F
REMARK SMILES IDX 4 1 5 2 6 3 24 4 25 5 3 7 2 8 1 9 26 11 27 12 32 13 29 14
REMARK SMILES IDX 31 15 30 16 28 17 33 18 7 19 8 20 9 23 10 24 11 25 15 26
REMARK SMILES IDX 12 27 14 28 13 29 16 30 18 31 17 32 19 33 20 34 23 35 21 36
REMARK SMILES IDX 22 37
REMARK H PARENT 5 6 1 10 8 21 8 22
ROOT
ATOM     1   N1  UNL     1       0.957   2.813   1.842  1.00  0.00    -0.209 N   
ATOM     2   C3  UNL     1       1.568   1.967   0.961  1.00  0.00     0.045 A   
ATOM     3   C4  UNL     1       0.545   1.545   0.145  1.00  0.00     0.127 A   
ATOM     4   N3  UNL     1      -0.620   2.155   0.529  1.00  0.00    -0.132 NA  
ATOM     5   N4  UNL     1      -0.355   2.933   1.565  1.00  0.00    -0.076 NA  
ATOM     6   H5  UNL     1       2.620   1.725   1.028  1.00  0.00     0.083 HD  
ENDROOT
BRANCH   1   7
ATOM     7   C2  UNL     1       1.545   3.520   2.960  1.00  0.00     0.170 C   
BRANCH   7   8
ATOM     8   C1  UNL     1       1.684   2.657   4.222  1.00  0.00     0.170 C   
BRANCH   8   9
ATOM     9   O1  UNL     1       2.607   1.589   3.986  1.00  0.00    -0.386 OA  
ATOM     10  H1  UNL     1       2.674   1.079   4.815  1.00  0.00     0.211 HD  
ENDBRANCH   8   9
BRANCH   8  11
ATOM     11  C19 UNL     1       0.373   2.171   4.787  1.00  0.00     0.054 A   
ATOM     12  C20 UNL     1      -0.360   3.015   5.627  1.00  0.00     0.132 A   
ATOM     13  C24 UNL     1      -0.186   0.926   4.486  1.00  0.00     0.132 A   
ATOM     14  C21 UNL     1      -1.582   2.631   6.175  1.00  0.00     0.040 A   
ATOM     15  C23 UNL     1      -1.406   0.522   5.030  1.00  0.00     0.040 A   
ATOM     16  C22 UNL     1      -2.107   1.375   5.880  1.00  0.00     0.006 A   
ATOM     17  F1  UNL     1       0.119   4.234   5.914  1.00  0.00    -0.207 F   
ATOM     18  F2  UNL     1       0.440   0.084   3.651  1.00  0.00    -0.207 F   
ENDBRANCH   8  11
ENDBRANCH   7   8
ENDBRANCH   1   7
BRANCH   3  19
ATOM     19  C5  UNL     1       0.517   0.523  -0.941  1.00  0.00     0.117 C   
BRANCH  19  20
ATOM     20  N2  UNL     1      -0.699  -0.361  -0.757  1.00  0.00     0.249 N   
ATOM     21  H7  UNL     1      -0.853  -0.942  -1.584  1.00  0.00     0.199 HD  
ATOM     22  H8  UNL     1      -1.504   0.277  -0.674  1.00  0.00     0.199 HD  
BRANCH  20  23
ATOM     23  C6  UNL     1      -0.692  -1.236   0.455  1.00  0.00     0.164 C   
BRANCH  23  24
ATOM     24  C7  UNL     1       0.371  -2.297   0.398  1.00  0.00    -0.002 A   
ATOM     25  C8  UNL     1       1.524  -2.194   1.213  1.00  0.00     0.012 A   
ATOM     26  C12 UNL     1       0.247  -3.378  -0.492  1.00  0.00     0.045 A   
ATOM     27  C9  UNL     1       2.546  -3.147   1.138  1.00  0.00     0.037 A   
ATOM     28  C11 UNL     1       1.273  -4.299  -0.540  1.00  0.00     0.109 A   
ATOM     29  C10 UNL     1       2.390  -4.187   0.250  1.00  0.00     0.108 A   
ATOM     30  O2  UNL     1       1.313  -5.393  -1.345  1.00  0.00    -0.316 OA  
ATOM     31  O3  UNL     1       3.275  -5.196   0.042  1.00  0.00    -0.316 OA  
ATOM     32  C13 UNL     1       2.577  -5.975  -0.952  1.00  0.00     0.337 C   
ENDBRANCH  23  24
ENDBRANCH  20  23
ENDBRANCH  19  20
BRANCH  19  33
ATOM     33  C14 UNL     1       0.450   1.164  -2.341  1.00  0.00     0.043 C   
ATOM     34  C15 UNL     1       0.408   0.151  -3.494  1.00  0.00     0.010 C   
ATOM     35  C18 UNL     1       1.688   1.998  -2.683  1.00  0.00     0.010 C   
ATOM     36  C16 UNL     1       1.012   0.863  -4.705  1.00  0.00     0.001 C   
ATOM     37  C17 UNL     1       1.583   2.179  -4.190  1.00  0.00     0.001 C   
ENDBRANCH  19  33
ENDBRANCH   3  19
TORSDOF 9
