REMARK SMILES O=C(c1ccccc1)n1cc([C@@H]([NH2+]Cc2ccc3c(c2)OCO3)C2CCCCC2)nn1
REMARK SMILES IDX 12 1 11 2 9 3 10 4 31 5 30 6 2 7 1 8 3 9 4 10 8 11 5 12 7 13
REMARK SMILES IDX 6 14 13 15 14 18 15 19 16 20 20 21 17 22 19 23 18 24 21 25
REMARK SMILES IDX 23 26 22 27 24 28 25 29 29 30 26 31 28 32 27 33
REMARK H PARENT 13 16 13 17
ROOT
ATOM     1   C10 UNL     1      -0.288  -0.271   0.637  1.00  0.00     0.117 C   
ENDROOT
BRANCH   1   2
ATOM     2   C9  UNL     1       0.800   0.752   0.748  1.00  0.00     0.128 A   
ATOM     3   N1  UNL     1       2.402   2.147   1.304  1.00  0.00    -0.143 N   
ATOM     4   C8  UNL     1       1.469   1.268   1.834  1.00  0.00     0.139 A   
ATOM     5   N4  UNL     1       2.331   2.094  -0.045  1.00  0.00    -0.068 NA  
ATOM     6   N3  UNL     1       1.359   1.264  -0.390  1.00  0.00    -0.131 NA  
BRANCH   3   7
ATOM     7   C1  UNL     1       3.350   2.921   1.992  1.00  0.00     0.271 C   
ATOM     8   O1  UNL     1       3.391   2.741   3.209  1.00  0.00    -0.269 OA  
BRANCH   7   9
ATOM     9   C2  UNL     1       4.298   3.889   1.377  1.00  0.00     0.039 A   
ATOM     10  C3  UNL     1       4.003   4.596   0.206  1.00  0.00     0.014 A   
ATOM     11  C7  UNL     1       5.517   4.122   2.032  1.00  0.00     0.014 A   
ATOM     12  C4  UNL     1       4.931   5.502  -0.317  1.00  0.00     0.001 A   
ATOM     13  C6  UNL     1       6.440   5.028   1.506  1.00  0.00     0.001 A   
ATOM     14  C5  UNL     1       6.147   5.714   0.330  1.00  0.00     0.000 A   
ENDBRANCH   7   9
ENDBRANCH   3   7
ENDBRANCH   1   2
BRANCH   1  15
ATOM     15  N2  UNL     1       0.145  -1.613   1.182  1.00  0.00     0.249 N   
ATOM     16  H8  UNL     1       0.440  -1.497   2.157  1.00  0.00     0.199 HD  
ATOM     17  H9  UNL     1      -0.663  -2.245   1.189  1.00  0.00     0.199 HD  
BRANCH  15  18
ATOM     18  C11 UNL     1       1.253  -2.293   0.436  1.00  0.00     0.164 C   
BRANCH  18  19
ATOM     19  C12 UNL     1       0.836  -2.769  -0.927  1.00  0.00    -0.002 A   
ATOM     20  C13 UNL     1       1.252  -2.069  -2.085  1.00  0.00     0.012 A   
ATOM     21  C17 UNL     1       0.004  -3.894  -1.061  1.00  0.00     0.045 A   
ATOM     22  C14 UNL     1       0.843  -2.478  -3.359  1.00  0.00     0.037 A   
ATOM     23  C16 UNL     1      -0.381  -4.270  -2.331  1.00  0.00     0.109 A   
ATOM     24  C15 UNL     1       0.025  -3.583  -3.448  1.00  0.00     0.108 A   
ATOM     25  O2  UNL     1      -1.183  -5.324  -2.633  1.00  0.00    -0.316 OA  
ATOM     26  O3  UNL     1      -0.468  -4.118  -4.594  1.00  0.00    -0.316 OA  
ATOM     27  C18 UNL     1      -1.214  -5.240  -4.077  1.00  0.00     0.337 C   
ENDBRANCH  18  19
ENDBRANCH  15  18
ENDBRANCH   1  15
BRANCH   1  28
ATOM     28  C19 UNL     1      -1.649   0.121   1.274  1.00  0.00     0.043 C   
ATOM     29  C20 UNL     1      -1.653   0.227   2.811  1.00  0.00     0.010 C   
ATOM     30  C24 UNL     1      -2.211   1.414   0.649  1.00  0.00     0.010 C   
ATOM     31  C21 UNL     1      -3.047   0.559   3.345  1.00  0.00     0.001 C   
ATOM     32  C23 UNL     1      -3.599   1.747   1.191  1.00  0.00     0.001 C   
ATOM     33  C22 UNL     1      -3.605   1.830   2.713  1.00  0.00     0.000 C   
ENDBRANCH   1  28
TORSDOF 7
