REMARK SMILES CC(C)(C)[C@H]([NH2+]Cc1ccc2c(c1)OCO2)c1cn(CCc2cc(F)cc(F)c2)nn1
REMARK SMILES IDX 17 1 18 2 19 3 30 4 31 5 5 7 2 8 1 9 3 10 4 11 6 12 7 15
REMARK SMILES IDX 8 16 9 17 13 18 10 19 12 20 11 21 14 22 16 23 15 24 20 25
REMARK SMILES IDX 21 26 22 27 23 28 29 29 24 30 27 31 26 32 25 33 28 34
REMARK H PARENT 18 6 6 13 6 14
ROOT
ATOM     1   C14 UNL     1       1.666  -0.277   1.136  1.00  0.00     0.127 A   
ATOM     2   C15 UNL     1       2.761   0.354   0.588  1.00  0.00     0.045 A   
ATOM     3   N2  UNL     1       2.972  -0.311  -0.588  1.00  0.00    -0.212 N   
ATOM     4   N3  UNL     1       2.070  -1.295  -0.752  1.00  0.00    -0.076 NA  
ATOM     5   N4  UNL     1       1.263  -1.284   0.295  1.00  0.00    -0.132 NA  
ATOM     6   H20 UNL     1       3.363   1.200   0.892  1.00  0.00     0.083 HD  
ENDROOT
BRANCH   1   7
ATOM     7   C5  UNL     1       0.859   0.029   2.363  1.00  0.00     0.120 C   
BRANCH   7   8
ATOM     8   C2  UNL     1       1.287  -0.786   3.633  1.00  0.00     0.010 C   
ATOM     9   C1  UNL     1       1.047  -2.300   3.479  1.00  0.00     0.017 C   
ATOM     10  C3  UNL     1       0.506  -0.294   4.874  1.00  0.00     0.017 C   
ATOM     11  C4  UNL     1       2.788  -0.559   3.930  1.00  0.00     0.017 C   
ENDBRANCH   7   8
BRANCH   7  12
ATOM     12  N1  UNL     1      -0.601  -0.208   2.052  1.00  0.00     0.250 N   
ATOM     13  H11 UNL     1      -1.173  -0.297   2.895  1.00  0.00     0.199 HD  
ATOM     14  H12 UNL     1      -0.657  -1.118   1.569  1.00  0.00     0.199 HD  
BRANCH  12  15
ATOM     15  C6  UNL     1      -1.236   0.800   1.155  1.00  0.00     0.164 C   
BRANCH  15  16
ATOM     16  C7  UNL     1      -2.658   0.413   0.862  1.00  0.00    -0.002 A   
ATOM     17  C8  UNL     1      -2.949  -0.457  -0.216  1.00  0.00     0.012 A   
ATOM     18  C12 UNL     1      -3.700   0.865   1.690  1.00  0.00     0.045 A   
ATOM     19  C9  UNL     1      -4.261  -0.864  -0.476  1.00  0.00     0.037 A   
ATOM     20  C11 UNL     1      -4.982   0.443   1.406  1.00  0.00     0.109 A   
ATOM     21  C10 UNL     1      -5.256  -0.396   0.354  1.00  0.00     0.108 A   
ATOM     22  O1  UNL     1      -6.098   0.783   2.103  1.00  0.00    -0.316 OA  
ATOM     23  O2  UNL     1      -6.579  -0.687   0.254  1.00  0.00    -0.316 OA  
ATOM     24  C13 UNL     1      -7.115   0.081   1.352  1.00  0.00     0.337 C   
ENDBRANCH  15  16
ENDBRANCH  12  15
ENDBRANCH   7  12
ENDBRANCH   1   7
BRANCH   3  25
ATOM     25  C16 UNL     1       3.916   0.011  -1.640  1.00  0.00     0.139 C   
BRANCH  25  26
ATOM     26  C17 UNL     1       3.250   0.623  -2.877  1.00  0.00     0.057 C   
BRANCH  26  27
ATOM     27  C18 UNL     1       2.507   1.903  -2.571  1.00  0.00    -0.041 A   
ATOM     28  C19 UNL     1       1.137   1.868  -2.266  1.00  0.00     0.043 A   
ATOM     29  C23 UNL     1       3.175   3.132  -2.523  1.00  0.00     0.043 A   
ATOM     30  C20 UNL     1       0.471   3.034  -1.899  1.00  0.00     0.126 A   
ATOM     31  C22 UNL     1       2.480   4.290  -2.173  1.00  0.00     0.126 A   
ATOM     32  C21 UNL     1       1.130   4.252  -1.853  1.00  0.00     0.078 A   
ATOM     33  F1  UNL     1      -0.819   2.961  -1.541  1.00  0.00    -0.207 F   
ATOM     34  F2  UNL     1       3.136   5.455  -2.120  1.00  0.00    -0.207 F   
ENDBRANCH  26  27
ENDBRANCH  25  26
ENDBRANCH   3  25
TORSDOF 8
