REMARK SMILES COc1ccc(Cn2cc([C@@H]([NH2+]Cc3ccc4c(c3)OCO4)C3CCCC3)nn2)c(F)c1
REMARK SMILES IDX 8 1 9 2 10 3 28 4 29 5 7 7 6 8 3 9 4 10 32 11 5 12 30 13
REMARK SMILES IDX 31 14 2 15 1 16 11 17 12 18 13 21 14 22 15 23 19 24 16 25
REMARK SMILES IDX 18 26 17 27 20 28 22 29 21 30 23 31 24 32 27 33 25 34 26 35
REMARK H PARENT 9 6 12 19 12 20
ROOT
ATOM     1   N1  UNL     1      -1.436  -0.498  -1.355  1.00  0.00    -0.208 N   
ATOM     2   C7  UNL     1      -0.395   0.335  -1.054  1.00  0.00     0.046 A   
ATOM     3   C8  UNL     1       0.719  -0.463  -1.187  1.00  0.00     0.127 A   
ATOM     4   N3  UNL     1       0.333  -1.712  -1.599  1.00  0.00    -0.132 NA  
ATOM     5   N4  UNL     1      -0.988  -1.724  -1.690  1.00  0.00    -0.076 NA  
ATOM     6   H8  UNL     1      -0.544   1.359  -0.739  1.00  0.00     0.083 HD  
ENDROOT
BRANCH   1   7
ATOM     7   C6  UNL     1      -2.860  -0.219  -1.274  1.00  0.00     0.172 C   
BRANCH   7   8
ATOM     8   C5  UNL     1      -3.373  -0.490   0.114  1.00  0.00     0.007 A   
ATOM     9   C2  UNL     1      -4.248  -0.993   2.744  1.00  0.00     0.077 A   
ATOM     10  C3  UNL     1      -4.443  -1.946   1.742  1.00  0.00     0.034 A   
ATOM     11  C24 UNL     1      -3.611   0.207   2.430  1.00  0.00     0.073 A   
ATOM     12  C4  UNL     1      -4.005  -1.698   0.434  1.00  0.00     0.011 A   
ATOM     13  C23 UNL     1      -3.187   0.450   1.130  1.00  0.00     0.130 A   
ATOM     14  F1  UNL     1      -2.565   1.605   0.854  1.00  0.00    -0.207 F   
BRANCH   9  15
ATOM     15  O1  UNL     1      -4.617  -1.118   4.054  1.00  0.00    -0.349 OA  
ATOM     16  C1  UNL     1      -5.383  -2.265   4.404  1.00  0.00     0.203 C   
ENDBRANCH   9  15
ENDBRANCH   7   8
ENDBRANCH   1   7
BRANCH   3  17
ATOM     17  C9  UNL     1       2.153  -0.189  -0.878  1.00  0.00     0.117 C   
BRANCH  17  18
ATOM     18  N2  UNL     1       2.776  -1.366  -0.153  1.00  0.00     0.249 N   
ATOM     19  H10 UNL     1       3.770  -1.189   0.012  1.00  0.00     0.199 HD  
ATOM     20  H11 UNL     1       2.706  -2.171  -0.790  1.00  0.00     0.199 HD  
BRANCH  18  21
ATOM     21  C10 UNL     1       2.142  -1.778   1.138  1.00  0.00     0.164 C   
BRANCH  21  22
ATOM     22  C11 UNL     1       2.071  -0.675   2.157  1.00  0.00    -0.002 A   
ATOM     23  C12 UNL     1       3.245  -0.178   2.770  1.00  0.00     0.012 A   
ATOM     24  C16 UNL     1       0.826  -0.111   2.489  1.00  0.00     0.045 A   
ATOM     25  C13 UNL     1       3.183   0.872   3.692  1.00  0.00     0.037 A   
ATOM     26  C15 UNL     1       0.800   0.924   3.399  1.00  0.00     0.109 A   
ATOM     27  C14 UNL     1       1.946   1.403   3.983  1.00  0.00     0.108 A   
ATOM     28  O2  UNL     1      -0.312   1.582   3.817  1.00  0.00    -0.316 OA  
ATOM     29  O3  UNL     1       1.699   2.422   4.846  1.00  0.00    -0.316 OA  
ATOM     30  C17 UNL     1       0.260   2.514   4.762  1.00  0.00     0.337 C   
ENDBRANCH  21  22
ENDBRANCH  18  21
ENDBRANCH  17  18
BRANCH  17  31
ATOM     31  C18 UNL     1       2.975   0.081  -2.154  1.00  0.00     0.043 C   
ATOM     32  C19 UNL     1       4.454   0.395  -1.897  1.00  0.00     0.010 C   
ATOM     33  C22 UNL     1       2.519   1.328  -2.919  1.00  0.00     0.010 C   
ATOM     34  C20 UNL     1       4.930   1.149  -3.138  1.00  0.00     0.001 C   
ATOM     35  C21 UNL     1       3.673   1.604  -3.873  1.00  0.00     0.001 C   
ENDBRANCH  17  31
ENDBRANCH   3  17
TORSDOF 8
