REMARK SMILES CC(C)[C@H]([NH2+]Cc1ccc2c(c1)OCO2)c1cn(-c2cc(Cl)ccc2O)nn1
REMARK SMILES IDX 16 1 17 2 18 3 27 4 28 5 4 6 2 7 1 8 3 9 5 10 6 13 7 14 8 15
REMARK SMILES IDX 12 16 9 17 11 18 10 19 13 20 15 21 14 22 19 23 20 24 25 25
REMARK SMILES IDX 21 26 24 27 23 28 22 29 26 30
REMARK H PARENT 5 11 5 12 26 31
ROOT
ATOM     1   C13 UNL     1       0.095   0.579  -1.084  1.00  0.00     0.127 A   
ATOM     2   C14 UNL     1       0.087  -0.172  -2.237  1.00  0.00     0.135 A   
ATOM     3   N2  UNL     1       1.281   0.113  -2.873  1.00  0.00    -0.178 N   
ATOM     4   N3  UNL     1       1.975   0.989  -2.091  1.00  0.00    -0.071 NA  
ATOM     5   N4  UNL     1       1.261   1.282  -1.018  1.00  0.00    -0.131 NA  
ENDROOT
BRANCH   1   6
ATOM     6   C4  UNL     1      -0.908   0.696   0.020  1.00  0.00     0.117 C   
BRANCH   6   7
ATOM     7   C2  UNL     1      -2.076   1.651  -0.350  1.00  0.00     0.037 C   
ATOM     8   C1  UNL     1      -3.250   1.512   0.628  1.00  0.00     0.014 C   
ATOM     9   C3  UNL     1      -1.666   3.124  -0.461  1.00  0.00     0.014 C   
ENDBRANCH   6   7
BRANCH   6  10
ATOM     10  N1  UNL     1      -0.240   1.160   1.293  1.00  0.00     0.249 N   
ATOM     11  H9  UNL     1      -0.924   1.549   1.947  1.00  0.00     0.199 HD  
ATOM     12  H10 UNL     1       0.390   1.929   1.024  1.00  0.00     0.199 HD  
BRANCH  10  13
ATOM     13  C5  UNL     1       0.589   0.144   2.007  1.00  0.00     0.164 C   
BRANCH  13  14
ATOM     14  C6  UNL     1      -0.240  -0.946   2.631  1.00  0.00    -0.002 A   
ATOM     15  C7  UNL     1      -0.207  -2.259   2.103  1.00  0.00     0.012 A   
ATOM     16  C11 UNL     1      -1.074  -0.663   3.727  1.00  0.00     0.045 A   
ATOM     17  C8  UNL     1      -0.998  -3.274   2.650  1.00  0.00     0.037 A   
ATOM     18  C10 UNL     1      -1.842  -1.687   4.241  1.00  0.00     0.109 A   
ATOM     19  C9  UNL     1      -1.807  -2.955   3.717  1.00  0.00     0.108 A   
ATOM     20  O1  UNL     1      -2.702  -1.580   5.288  1.00  0.00    -0.316 OA  
ATOM     21  O2  UNL     1      -2.639  -3.808   4.369  1.00  0.00    -0.316 OA  
ATOM     22  C12 UNL     1      -3.184  -2.940   5.386  1.00  0.00     0.337 C   
ENDBRANCH  13  14
ENDBRANCH  10  13
ENDBRANCH   6  10
ENDBRANCH   1   6
BRANCH   3  23
ATOM     23  C15 UNL     1       1.818  -0.355  -4.104  1.00  0.00     0.089 A   
ATOM     24  C16 UNL     1       3.083   0.125  -4.500  1.00  0.00     0.049 A   
ATOM     25  C20 UNL     1       1.153  -1.264  -4.940  1.00  0.00     0.095 A   
ATOM     26  C17 UNL     1       3.658  -0.298  -5.697  1.00  0.00     0.043 A   
ATOM     27  C19 UNL     1       1.739  -1.683  -6.141  1.00  0.00     0.037 A   
ATOM     28  C18 UNL     1       2.992  -1.199  -6.519  1.00  0.00     0.023 A   
ATOM     29  CL1 UNL     1       5.203   0.299  -6.161  1.00  0.00    -0.084 Cl  
BRANCH  25  30
ATOM     30  O3  UNL     1      -0.074  -1.772  -4.619  1.00  0.00    -0.359 OA  
ATOM     31  H22 UNL     1      -0.373  -2.364  -5.333  1.00  0.00     0.218 HD  
ENDBRANCH  25  30
ENDBRANCH   3  23
TORSDOF 7
