REMARK SMILES CC(C)[C@H]([NH2+]Cc1ccc2c(c1)OCO2)c1cn(-c2ccccc2CO)nn1
REMARK SMILES IDX 16 1 17 2 18 3 27 4 28 5 4 6 2 7 1 8 3 9 5 10 6 13 7 14 8 15
REMARK SMILES IDX 12 16 9 17 11 18 10 19 13 20 15 21 14 22 19 23 20 24 24 25
REMARK SMILES IDX 21 26 23 27 22 28 25 29 26 30
REMARK H PARENT 5 11 5 12 26 31
ROOT
ATOM     1   C13 UNL     1       0.833  -0.372   1.487  1.00  0.00     0.127 A   
ATOM     2   C14 UNL     1      -0.431   0.172   1.486  1.00  0.00     0.135 A   
ATOM     3   N2  UNL     1      -0.295   1.423   0.902  1.00  0.00    -0.180 N   
ATOM     4   N3  UNL     1       1.022   1.612   0.625  1.00  0.00    -0.071 NA  
ATOM     5   N4  UNL     1       1.706   0.533   0.961  1.00  0.00    -0.131 NA  
ENDROOT
BRANCH   1   6
ATOM     6   C4  UNL     1       1.319  -1.738   1.863  1.00  0.00     0.117 C   
BRANCH   6   7
ATOM     7   C2  UNL     1       1.889  -1.785   3.305  1.00  0.00     0.037 C   
ATOM     8   C1  UNL     1       2.074  -3.229   3.788  1.00  0.00     0.014 C   
ATOM     9   C3  UNL     1       3.198  -1.008   3.492  1.00  0.00     0.014 C   
ENDBRANCH   6   7
BRANCH   6  10
ATOM     10  N1  UNL     1       2.351  -2.218   0.865  1.00  0.00     0.249 N   
ATOM     11  H9  UNL     1       3.067  -2.789   1.321  1.00  0.00     0.199 HD  
ATOM     12  H10 UNL     1       2.837  -1.373   0.527  1.00  0.00     0.199 HD  
BRANCH  10  13
ATOM     13  C5  UNL     1       1.833  -2.966  -0.323  1.00  0.00     0.164 C   
BRANCH  13  14
ATOM     14  C6  UNL     1       0.887  -2.170  -1.177  1.00  0.00    -0.002 A   
ATOM     15  C7  UNL     1      -0.500  -2.457  -1.172  1.00  0.00     0.012 A   
ATOM     16  C11 UNL     1       1.366  -1.090  -1.939  1.00  0.00     0.045 A   
ATOM     17  C8  UNL     1      -1.401  -1.657  -1.884  1.00  0.00     0.037 A   
ATOM     18  C10 UNL     1       0.449  -0.317  -2.620  1.00  0.00     0.109 A   
ATOM     19  C9  UNL     1      -0.896  -0.586  -2.587  1.00  0.00     0.108 A   
ATOM     20  O1  UNL     1       0.742   0.779  -3.364  1.00  0.00    -0.316 OA  
ATOM     21  O2  UNL     1      -1.622   0.310  -3.302  1.00  0.00    -0.316 OA  
ATOM     22  C12 UNL     1      -0.580   1.197  -3.772  1.00  0.00     0.337 C   
ENDBRANCH  13  14
ENDBRANCH  10  13
ENDBRANCH   6  10
ENDBRANCH   1   6
BRANCH   3  23
ATOM     23  C15 UNL     1      -1.310   2.376   0.584  1.00  0.00     0.063 A   
ATOM     24  C16 UNL     1      -2.651   2.045   0.875  1.00  0.00     0.026 A   
ATOM     25  C20 UNL     1      -1.029   3.626  -0.024  1.00  0.00     0.001 A   
ATOM     26  C17 UNL     1      -3.696   2.918   0.568  1.00  0.00     0.002 A   
ATOM     27  C19 UNL     1      -2.110   4.482  -0.331  1.00  0.00     0.008 A   
ATOM     28  C18 UNL     1      -3.426   4.135  -0.038  1.00  0.00     0.001 A   
BRANCH  25  29
ATOM     29  C21 UNL     1       0.344   4.135  -0.389  1.00  0.00     0.193 C   
BRANCH  29  30
ATOM     30  O3  UNL     1       0.847   3.401  -1.494  1.00  0.00    -0.392 OA  
ATOM     31  H25 UNL     1       1.289   2.619  -1.111  1.00  0.00     0.211 HD  
ENDBRANCH  29  30
ENDBRANCH  25  29
ENDBRANCH   3  23
TORSDOF 8
