REMARK SMILES COc1ccnc(Cn2cc([C@@H]([NH2+]Cc3ccc4c(c3)OCO4)C3CCCC3)nn2)c1C
REMARK SMILES IDX 9 1 10 2 11 3 29 4 30 5 8 7 7 8 3 9 4 10 31 11 5 12 6 13
REMARK SMILES IDX 32 14 2 15 1 16 12 17 13 18 14 21 15 22 16 23 20 24 17 25
REMARK SMILES IDX 19 26 18 27 21 28 23 29 22 30 24 31 25 32 28 33 26 34 27 35
REMARK H PARENT 10 6 13 19 13 20
ROOT
ATOM     1   N2  UNL     1      -1.722  -0.411  -1.280  1.00  0.00    -0.206 N   
ATOM     2   C7  UNL     1      -0.560   0.257  -1.568  1.00  0.00     0.046 A   
ATOM     3   C8  UNL     1      -0.164   0.774  -0.355  1.00  0.00     0.127 A   
ATOM     4   N4  UNL     1      -1.086   0.431   0.601  1.00  0.00    -0.132 NA  
ATOM     5   N5  UNL     1      -2.059  -0.245   0.018  1.00  0.00    -0.076 NA  
ATOM     6   H8  UNL     1      -0.141   0.270  -2.565  1.00  0.00     0.083 HD  
ENDROOT
BRANCH   1   7
ATOM     7   C6  UNL     1      -2.586  -1.145  -2.184  1.00  0.00     0.190 C   
BRANCH   7   8
ATOM     8   C5  UNL     1      -1.965  -2.470  -2.542  1.00  0.00     0.065 A   
ATOM     9   C2  UNL     1      -1.604  -4.836  -2.263  1.00  0.00     0.081 A   
ATOM     10  C3  UNL     1      -0.727  -4.798  -3.342  1.00  0.00     0.054 A   
ATOM     11  C23 UNL     1      -2.236  -3.652  -1.833  1.00  0.00     0.003 A   
ATOM     12  C4  UNL     1      -0.513  -3.584  -3.966  1.00  0.00     0.114 A   
ATOM     13  N1  UNL     1      -1.102  -2.428  -3.591  1.00  0.00    -0.259 NA  
ATOM     14  C24 UNL     1      -3.214  -3.672  -0.688  1.00  0.00     0.049 C   
BRANCH   9  15
ATOM     15  O1  UNL     1      -1.909  -5.973  -1.561  1.00  0.00    -0.349 OA  
ATOM     16  C1  UNL     1      -1.366  -7.207  -2.010  1.00  0.00     0.203 C   
ENDBRANCH   9  15
ENDBRANCH   7   8
ENDBRANCH   1   7
BRANCH   3  17
ATOM     17  C9  UNL     1       1.025   1.591   0.038  1.00  0.00     0.117 C   
BRANCH  17  18
ATOM     18  N3  UNL     1       0.818   2.155   1.421  1.00  0.00     0.249 N   
ATOM     19  H10 UNL     1       1.695   2.296   1.933  1.00  0.00     0.199 HD  
ATOM     20  H11 UNL     1       0.299   1.429   1.946  1.00  0.00     0.199 HD  
BRANCH  18  21
ATOM     21  C10 UNL     1      -0.004   3.394   1.489  1.00  0.00     0.164 C   
BRANCH  21  22
ATOM     22  C11 UNL     1      -0.302   3.742   2.920  1.00  0.00    -0.002 A   
ATOM     23  C12 UNL     1       0.541   4.627   3.636  1.00  0.00     0.012 A   
ATOM     24  C16 UNL     1      -1.388   3.134   3.576  1.00  0.00     0.045 A   
ATOM     25  C13 UNL     1       0.306   4.908   4.987  1.00  0.00     0.037 A   
ATOM     26  C15 UNL     1      -1.590   3.431   4.910  1.00  0.00     0.109 A   
ATOM     27  C14 UNL     1      -0.766   4.292   5.596  1.00  0.00     0.108 A   
ATOM     28  O2  UNL     1      -2.578   2.925   5.693  1.00  0.00    -0.316 OA  
ATOM     29  O3  UNL     1      -1.132   4.436   6.900  1.00  0.00    -0.316 OA  
ATOM     30  C17 UNL     1      -2.276   3.554   6.962  1.00  0.00     0.337 C   
ENDBRANCH  21  22
ENDBRANCH  18  21
ENDBRANCH  17  18
BRANCH  17  31
ATOM     31  C18 UNL     1       2.334   0.781  -0.028  1.00  0.00     0.043 C   
ATOM     32  C19 UNL     1       3.605   1.626   0.113  1.00  0.00     0.010 C   
ATOM     33  C22 UNL     1       2.500  -0.339   1.017  1.00  0.00     0.010 C   
ATOM     34  C20 UNL     1       4.672   0.583   0.401  1.00  0.00     0.001 C   
ATOM     35  C21 UNL     1       3.991  -0.369   1.372  1.00  0.00     0.001 C   
ENDBRANCH  17  31
ENDBRANCH   3  17
TORSDOF 8
