REMARK SMILES c1ncc(Cn2cc([C@@H]([NH2+]Cc3ccc4c(c3)OCO4)C3CCCCC3)nn2)[nH]1
REMARK SMILES IDX 6 1 7 2 8 3 27 4 28 5 5 7 4 8 1 9 2 10 29 11 3 12 9 14 10 15
REMARK SMILES IDX 11 18 12 19 13 20 17 21 14 22 16 23 15 24 18 25 20 26 19 27
REMARK SMILES IDX 21 28 22 29 26 30 23 31 25 32 24 33
REMARK H PARENT 7 6 29 13 10 16 10 17
ROOT
ATOM     1   N2  UNL     1       0.143  -1.923   2.525  1.00  0.00    -0.206 N   
ATOM     2   C5  UNL     1       0.425  -1.989   1.188  1.00  0.00     0.046 A   
ATOM     3   C6  UNL     1       0.701  -0.685   0.843  1.00  0.00     0.127 A   
ATOM     4   N4  UNL     1       0.583   0.111   1.956  1.00  0.00    -0.132 NA  
ATOM     5   N5  UNL     1       0.239  -0.656   2.977  1.00  0.00    -0.076 NA  
ATOM     6   H5  UNL     1       0.387  -2.917   0.634  1.00  0.00     0.083 HD  
ENDROOT
BRANCH   1   7
ATOM     7   C4  UNL     1      -0.217  -3.008   3.424  1.00  0.00     0.186 C   
BRANCH   7   8
ATOM     8   C3  UNL     1      -1.683  -3.231   3.410  1.00  0.00     0.046 A   
ATOM     9   C1  UNL     1      -3.829  -2.909   3.825  1.00  0.00     0.185 A   
ATOM     10  N1  UNL     1      -3.785  -4.002   3.098  1.00  0.00    -0.248 NA  
ATOM     11  N6  UNL     1      -2.581  -2.398   4.035  1.00  0.00    -0.307 N   
ATOM     12  C2  UNL     1      -2.458  -4.221   2.846  1.00  0.00     0.133 A   
ATOM     13  H27 UNL     1      -2.370  -1.553   4.552  1.00  0.00     0.153 HD  
ENDBRANCH   7   8
ENDBRANCH   1   7
BRANCH   3  14
ATOM     14  C7  UNL     1       1.045  -0.063  -0.473  1.00  0.00     0.117 C   
BRANCH  14  15
ATOM     15  N3  UNL     1       0.569   1.372  -0.506  1.00  0.00     0.249 N   
ATOM     16  H7  UNL     1       0.502   1.668   0.481  1.00  0.00     0.199 HD  
ATOM     17  H8  UNL     1       1.266   1.986  -0.934  1.00  0.00     0.199 HD  
BRANCH  15  18
ATOM     18  C8  UNL     1      -0.750   1.615  -1.155  1.00  0.00     0.164 C   
BRANCH  18  19
ATOM     19  C9  UNL     1      -1.907   0.968  -0.450  1.00  0.00    -0.002 A   
ATOM     20  C10 UNL     1      -2.394   1.503   0.767  1.00  0.00     0.012 A   
ATOM     21  C14 UNL     1      -2.497  -0.194  -0.977  1.00  0.00     0.045 A   
ATOM     22  C11 UNL     1      -3.452   0.893   1.450  1.00  0.00     0.037 A   
ATOM     23  C13 UNL     1      -3.535  -0.772  -0.277  1.00  0.00     0.109 A   
ATOM     24  C12 UNL     1      -4.001  -0.244   0.901  1.00  0.00     0.108 A   
ATOM     25  O1  UNL     1      -4.207  -1.893  -0.647  1.00  0.00    -0.316 OA  
ATOM     26  O2  UNL     1      -5.032  -0.960   1.420  1.00  0.00    -0.316 OA  
ATOM     27  C15 UNL     1      -5.165  -2.007   0.432  1.00  0.00     0.337 C   
ENDBRANCH  18  19
ENDBRANCH  15  18
ENDBRANCH  14  15
BRANCH  14  28
ATOM     28  C16 UNL     1       2.566  -0.142  -0.777  1.00  0.00     0.043 C   
ATOM     29  C17 UNL     1       2.868   0.224  -2.244  1.00  0.00     0.010 C   
ATOM     30  C21 UNL     1       3.445   0.691   0.178  1.00  0.00     0.010 C   
ATOM     31  C18 UNL     1       4.355   0.086  -2.567  1.00  0.00     0.001 C   
ATOM     32  C20 UNL     1       4.930   0.554  -0.158  1.00  0.00     0.001 C   
ATOM     33  C19 UNL     1       5.215   0.908  -1.613  1.00  0.00     0.000 C   
ENDBRANCH  14  28
ENDBRANCH   3  14
TORSDOF 7
