REMARK SMILES CC(C)[C@H]([NH2+]Cc1ccc2c(c1)OCO2)c1cn([C@@H](CO)c2ccc(O)c(F)c2)nn1
REMARK SMILES IDX 16 1 17 2 18 3 30 4 31 5 4 7 2 8 1 9 3 10 5 11 6 14 7 15
REMARK SMILES IDX 8 16 12 17 9 18 11 19 10 20 13 21 15 22 14 23 19 24 20 25
REMARK SMILES IDX 21 26 22 28 23 29 29 30 24 31 27 32 25 33 28 34 26 35
REMARK H PARENT 17 6 5 12 5 13 21 27 26 36
ROOT
ATOM     1   C13 UNL     1       0.419  -0.987   1.153  1.00  0.00     0.127 A   
ATOM     2   C14 UNL     1      -0.206  -0.540   0.012  1.00  0.00     0.046 A   
ATOM     3   N2  UNL     1      -0.339   0.808   0.209  1.00  0.00    -0.202 N   
ATOM     4   N3  UNL     1       0.182   1.167   1.402  1.00  0.00    -0.075 NA  
ATOM     5   N4  UNL     1       0.651   0.078   1.986  1.00  0.00    -0.132 NA  
ATOM     6   H18 UNL     1      -0.535  -1.024  -0.899  1.00  0.00     0.083 HD  
ENDROOT
BRANCH   1   7
ATOM     7   C4  UNL     1       0.912  -2.342   1.539  1.00  0.00     0.117 C   
BRANCH   7   8
ATOM     8   C2  UNL     1      -0.055  -3.126   2.463  1.00  0.00     0.037 C   
ATOM     9   C1  UNL     1      -0.370  -2.424   3.791  1.00  0.00     0.014 C   
ATOM     10  C3  UNL     1      -1.361  -3.477   1.743  1.00  0.00     0.014 C   
ENDBRANCH   7   8
BRANCH   7  11
ATOM     11  N1  UNL     1       2.252  -2.212   2.239  1.00  0.00     0.249 N   
ATOM     12  H9  UNL     1       2.323  -2.886   3.007  1.00  0.00     0.199 HD  
ATOM     13  H10 UNL     1       2.250  -1.277   2.678  1.00  0.00     0.199 HD  
BRANCH  11  14
ATOM     14  C5  UNL     1       3.463  -2.330   1.378  1.00  0.00     0.164 C   
BRANCH  14  15
ATOM     15  C6  UNL     1       3.603  -1.237   0.356  1.00  0.00    -0.002 A   
ATOM     16  C7  UNL     1       3.380  -1.505  -1.016  1.00  0.00     0.012 A   
ATOM     17  C11 UNL     1       3.933   0.069   0.758  1.00  0.00     0.045 A   
ATOM     18  C8  UNL     1       3.470  -0.487  -1.973  1.00  0.00     0.037 A   
ATOM     19  C10 UNL     1       4.016   1.048  -0.211  1.00  0.00     0.109 A   
ATOM     20  C9  UNL     1       3.787   0.779  -1.538  1.00  0.00     0.108 A   
ATOM     21  O1  UNL     1       4.319   2.354   0.009  1.00  0.00    -0.316 OA  
ATOM     22  O2  UNL     1       3.900   1.887  -2.318  1.00  0.00    -0.316 OA  
ATOM     23  C12 UNL     1       4.320   2.865  -1.341  1.00  0.00     0.337 C   
ENDBRANCH  14  15
ENDBRANCH  11  14
ENDBRANCH   7  11
ENDBRANCH   1   7
BRANCH   3  24
ATOM     24  C15 UNL     1      -0.924   1.819  -0.672  1.00  0.00     0.155 C   
BRANCH  24  25
ATOM     25  C16 UNL     1       0.089   2.261  -1.748  1.00  0.00     0.185 C   
BRANCH  25  26
ATOM     26  O3  UNL     1       0.544   1.182  -2.565  1.00  0.00    -0.394 OA  
ATOM     27  H22 UNL     1       1.241   1.543  -3.144  1.00  0.00     0.210 HD  
ENDBRANCH  25  26
ENDBRANCH  24  25
BRANCH  24  28
ATOM     28  C17 UNL     1      -2.311   1.393  -1.140  1.00  0.00    -0.020 A   
ATOM     29  C18 UNL     1      -2.564   0.877  -2.425  1.00  0.00     0.009 A   
ATOM     30  C22 UNL     1      -3.392   1.497  -0.244  1.00  0.00     0.048 A   
ATOM     31  C19 UNL     1      -3.853   0.482  -2.806  1.00  0.00     0.036 A   
ATOM     32  C21 UNL     1      -4.669   1.102  -0.631  1.00  0.00     0.153 A   
ATOM     33  C20 UNL     1      -4.899   0.597  -1.903  1.00  0.00     0.107 A   
ATOM     34  F1  UNL     1      -5.686   1.209   0.233  1.00  0.00    -0.204 F   
BRANCH  33  35
ATOM     35  O4  UNL     1      -6.144   0.203  -2.295  1.00  0.00    -0.358 OA  
ATOM     36  H25 UNL     1      -6.754   0.396  -1.558  1.00  0.00     0.218 HD  
ENDBRANCH  33  35
ENDBRANCH  24  28
ENDBRANCH   3  24
TORSDOF 10
