REMARK SMILES CC(C)[C@H]([NH2+]Cc1ccc2c(c1)OCO2)c1cn([C@H](CO)c2ccc(O)c(F)c2)nn1
REMARK SMILES IDX 16 1 17 2 18 3 30 4 31 5 4 7 2 8 1 9 3 10 5 11 6 14 7 15
REMARK SMILES IDX 8 16 12 17 9 18 11 19 10 20 13 21 15 22 14 23 19 24 20 25
REMARK SMILES IDX 21 26 22 28 23 29 29 30 24 31 27 32 25 33 28 34 26 35
REMARK H PARENT 17 6 5 12 5 13 21 27 26 36
ROOT
ATOM     1   C13 UNL     1      -1.224   0.704  -0.999  1.00  0.00     0.127 A   
ATOM     2   C14 UNL     1      -0.381  -0.236  -0.455  1.00  0.00     0.046 A   
ATOM     3   N2  UNL     1       0.870   0.184  -0.822  1.00  0.00    -0.202 N   
ATOM     4   N3  UNL     1       0.796   1.326  -1.540  1.00  0.00    -0.075 NA  
ATOM     5   N4  UNL     1      -0.481   1.645  -1.667  1.00  0.00    -0.132 NA  
ATOM     6   H18 UNL     1      -0.541  -1.127   0.137  1.00  0.00     0.083 HD  
ENDROOT
BRANCH   1   7
ATOM     7   C4  UNL     1      -2.708   0.869  -0.914  1.00  0.00     0.117 C   
BRANCH   7   8
ATOM     8   C2  UNL     1      -3.475   0.214  -2.093  1.00  0.00     0.037 C   
ATOM     9   C1  UNL     1      -4.999   0.348  -1.926  1.00  0.00     0.014 C   
ATOM     10  C3  UNL     1      -3.145  -1.280  -2.234  1.00  0.00     0.014 C   
ENDBRANCH   7   8
BRANCH   7  11
ATOM     11  N1  UNL     1      -3.004   2.361  -0.897  1.00  0.00     0.249 N   
ATOM     12  H9  UNL     1      -3.707   2.608  -1.597  1.00  0.00     0.199 HD  
ATOM     13  H10 UNL     1      -2.140   2.819  -1.228  1.00  0.00     0.199 HD  
BRANCH  11  14
ATOM     14  C5  UNL     1      -3.374   2.947   0.417  1.00  0.00     0.164 C   
BRANCH  14  15
ATOM     15  C6  UNL     1      -2.294   2.850   1.458  1.00  0.00    -0.002 A   
ATOM     16  C7  UNL     1      -1.103   3.607   1.335  1.00  0.00     0.012 A   
ATOM     17  C11 UNL     1      -2.456   1.998   2.564  1.00  0.00     0.045 A   
ATOM     18  C8  UNL     1      -0.089   3.518   2.296  1.00  0.00     0.037 A   
ATOM     19  C10 UNL     1      -1.437   1.935   3.493  1.00  0.00     0.109 A   
ATOM     20  C9  UNL     1      -0.288   2.674   3.365  1.00  0.00     0.108 A   
ATOM     21  O1  UNL     1      -1.441   1.169   4.614  1.00  0.00    -0.316 OA  
ATOM     22  O2  UNL     1       0.577   2.469   4.392  1.00  0.00    -0.316 OA  
ATOM     23  C12 UNL     1      -0.173   1.539   5.203  1.00  0.00     0.337 C   
ENDBRANCH  14  15
ENDBRANCH  11  14
ENDBRANCH   7  11
ENDBRANCH   1   7
BRANCH   3  24
ATOM     24  C15 UNL     1       2.170  -0.423  -0.535  1.00  0.00     0.155 C   
BRANCH  24  25
ATOM     25  C16 UNL     1       2.485  -1.562  -1.525  1.00  0.00     0.185 C   
BRANCH  25  26
ATOM     26  O3  UNL     1       1.496  -2.593  -1.526  1.00  0.00    -0.394 OA  
ATOM     27  H22 UNL     1       1.846  -3.323  -2.067  1.00  0.00     0.210 HD  
ENDBRANCH  25  26
ENDBRANCH  24  25
BRANCH  24  28
ATOM     28  C17 UNL     1       2.306  -0.739   0.952  1.00  0.00    -0.020 A   
ATOM     29  C18 UNL     1       2.638   0.304   1.842  1.00  0.00     0.009 A   
ATOM     30  C22 UNL     1       2.084  -2.019   1.485  1.00  0.00     0.048 A   
ATOM     31  C19 UNL     1       2.750   0.074   3.217  1.00  0.00     0.036 A   
ATOM     32  C21 UNL     1       2.195  -2.236   2.857  1.00  0.00     0.153 A   
ATOM     33  C20 UNL     1       2.522  -1.198   3.718  1.00  0.00     0.107 A   
ATOM     34  F1  UNL     1       1.967  -3.461   3.354  1.00  0.00    -0.204 F   
BRANCH  33  35
ATOM     35  O4  UNL     1       2.617  -1.398   5.064  1.00  0.00    -0.358 OA  
ATOM     36  H25 UNL     1       2.492  -2.354   5.224  1.00  0.00     0.218 HD  
ENDBRANCH  33  35
ENDBRANCH  24  28
ENDBRANCH   3  24
TORSDOF 10
