REMARK SMILES CC(C)C[C@H]([NH2+]Cc1ccc2c(c1)OCO2)c1cn(Cc2ccc[nH]2)nn1
REMARK SMILES IDX 17 1 18 2 19 3 26 4 27 5 5 7 4 8 2 9 1 10 3 11 6 12 7 15
REMARK SMILES IDX 8 16 9 17 13 18 10 19 12 20 11 21 14 22 16 23 15 24 20 25
REMARK SMILES IDX 21 26 22 27 25 28 23 29 24 30
REMARK H PARENT 18 6 6 13 6 14 25 31
ROOT
ATOM     1   C14 UNL     1      -1.657  -0.679  -0.468  1.00  0.00     0.127 A   
ATOM     2   C15 UNL     1      -2.085   0.424   0.235  1.00  0.00     0.046 A   
ATOM     3   N2  UNL     1      -3.018  -0.078   1.100  1.00  0.00    -0.206 N   
ATOM     4   N4  UNL     1      -3.172  -1.406   0.924  1.00  0.00    -0.076 NA  
ATOM     5   N5  UNL     1      -2.352  -1.783  -0.045  1.00  0.00    -0.132 NA  
ATOM     6   H20 UNL     1      -1.789   1.464   0.244  1.00  0.00     0.083 HD  
ENDROOT
BRANCH   1   7
ATOM     7   C5  UNL     1      -0.557  -0.828  -1.462  1.00  0.00     0.114 C   
BRANCH   7   8
ATOM     8   C4  UNL     1      -1.077  -0.993  -2.903  1.00  0.00     0.064 C   
BRANCH   8   9
ATOM     9   C2  UNL     1      -1.858   0.217  -3.460  1.00  0.00    -0.012 C   
ATOM     10  C1  UNL     1      -1.007   1.488  -3.511  1.00  0.00     0.007 C   
ATOM     11  C3  UNL     1      -2.382  -0.108  -4.861  1.00  0.00     0.007 C   
ENDBRANCH   8   9
ENDBRANCH   7   8
BRANCH   7  12
ATOM     12  N1  UNL     1       0.278  -2.059  -1.155  1.00  0.00     0.249 N   
ATOM     13  H11 UNL     1      -0.358  -2.866  -1.209  1.00  0.00     0.199 HD  
ATOM     14  H12 UNL     1       0.990  -2.180  -1.881  1.00  0.00     0.199 HD  
BRANCH  12  15
ATOM     15  C6  UNL     1       0.932  -2.110   0.191  1.00  0.00     0.164 C   
BRANCH  15  16
ATOM     16  C7  UNL     1       1.812  -0.927   0.484  1.00  0.00    -0.002 A   
ATOM     17  C8  UNL     1       1.446  -0.006   1.497  1.00  0.00     0.012 A   
ATOM     18  C12 UNL     1       2.989  -0.712  -0.253  1.00  0.00     0.045 A   
ATOM     19  C9  UNL     1       2.231   1.120   1.764  1.00  0.00     0.037 A   
ATOM     20  C11 UNL     1       3.739   0.410   0.035  1.00  0.00     0.109 A   
ATOM     21  C10 UNL     1       3.371   1.301   1.013  1.00  0.00     0.108 A   
ATOM     22  O1  UNL     1       4.892   0.768  -0.588  1.00  0.00    -0.316 OA  
ATOM     23  O2  UNL     1       4.248   2.331   1.132  1.00  0.00    -0.316 OA  
ATOM     24  C13 UNL     1       5.229   1.976   0.133  1.00  0.00     0.337 C   
ENDBRANCH  15  16
ENDBRANCH  12  15
ENDBRANCH   7  12
ENDBRANCH   1   7
BRANCH   3  25
ATOM     25  C16 UNL     1      -3.688   0.614   2.189  1.00  0.00     0.185 C   
BRANCH  25  26
ATOM     26  C17 UNL     1      -2.775   0.689   3.368  1.00  0.00     0.026 A   
ATOM     27  C18 UNL     1      -1.957   1.710   3.815  1.00  0.00     0.022 A   
ATOM     28  N3  UNL     1      -2.624  -0.371   4.235  1.00  0.00    -0.323 N   
ATOM     29  C19 UNL     1      -1.276   1.241   4.963  1.00  0.00     0.017 A   
ATOM     30  C20 UNL     1      -1.701  -0.047   5.193  1.00  0.00     0.071 A   
ATOM     31  H26 UNL     1      -3.109  -1.260   4.173  1.00  0.00     0.152 HD  
ENDBRANCH  25  26
ENDBRANCH   3  25
TORSDOF 8
