REMARK SMILES CC(C)[C@H]([NH2+]Cc1ccc2c(c1)OCO2)c1cn(C(=O)c2ccccc2)nn1
REMARK SMILES IDX 4 1 2 2 1 3 3 4 5 5 6 8 7 9 8 10 12 11 9 12 11 13 10 14
REMARK SMILES IDX 13 15 15 16 14 17 16 18 17 19 28 20 18 21 27 22 19 23 20 24
REMARK SMILES IDX 21 25 22 26 26 27 23 28 25 29 24 30
REMARK H PARENT 5 6 5 7
ROOT
ATOM     1   C4  UNL     1       0.477  -1.475   0.377  1.00  0.00     0.117 C   
ENDROOT
BRANCH   1   2
ATOM     2   C2  UNL     1       1.296  -1.727   1.672  1.00  0.00     0.037 C   
ATOM     3   C1  UNL     1       2.803  -1.884   1.435  1.00  0.00     0.014 C   
ATOM     4   C3  UNL     1       0.765  -2.936   2.451  1.00  0.00     0.014 C   
ENDBRANCH   1   2
BRANCH   1   5
ATOM     5   N1  UNL     1       0.747  -2.570  -0.629  1.00  0.00     0.249 N   
ATOM     6   H9  UNL     1       1.639  -2.333  -1.084  1.00  0.00     0.199 HD  
ATOM     7   H10 UNL     1       0.880  -3.471  -0.162  1.00  0.00     0.199 HD  
BRANCH   5   8
ATOM     8   C5  UNL     1      -0.272  -2.737  -1.708  1.00  0.00     0.164 C   
BRANCH   8   9
ATOM     9   C6  UNL     1      -1.551  -3.345  -1.202  1.00  0.00    -0.002 A   
ATOM     10  C7  UNL     1      -1.606  -4.718  -0.861  1.00  0.00     0.012 A   
ATOM     11  C11 UNL     1      -2.695  -2.545  -1.036  1.00  0.00     0.045 A   
ATOM     12  C8  UNL     1      -2.780  -5.286  -0.353  1.00  0.00     0.037 A   
ATOM     13  C10 UNL     1      -3.835  -3.137  -0.531  1.00  0.00     0.109 A   
ATOM     14  C9  UNL     1      -3.876  -4.468  -0.199  1.00  0.00     0.108 A   
ATOM     15  O1  UNL     1      -5.016  -2.506  -0.301  1.00  0.00    -0.316 OA  
ATOM     16  O2  UNL     1      -5.090  -4.845   0.280  1.00  0.00    -0.316 OA  
ATOM     17  C12 UNL     1      -5.822  -3.603   0.187  1.00  0.00     0.337 C   
ENDBRANCH   8   9
ENDBRANCH   5   8
ENDBRANCH   1   5
BRANCH   1  18
ATOM     18  C13 UNL     1       0.765  -0.131  -0.218  1.00  0.00     0.128 A   
ATOM     19  C14 UNL     1       0.314   1.122   0.123  1.00  0.00     0.139 A   
ATOM     20  N4  UNL     1       1.601  -0.022  -1.297  1.00  0.00    -0.131 NA  
ATOM     21  N2  UNL     1       0.924   1.984  -0.773  1.00  0.00    -0.143 N   
ATOM     22  N3  UNL     1       1.692   1.258  -1.624  1.00  0.00    -0.068 NA  
BRANCH  21  23
ATOM     23  C15 UNL     1       0.838   3.385  -0.823  1.00  0.00     0.271 C   
ATOM     24  O3  UNL     1       0.167   3.906   0.068  1.00  0.00    -0.269 OA  
BRANCH  23  25
ATOM     25  C16 UNL     1       1.494   4.266  -1.828  1.00  0.00     0.039 A   
ATOM     26  C17 UNL     1       1.843   5.566  -1.431  1.00  0.00     0.014 A   
ATOM     27  C21 UNL     1       1.735   3.865  -3.147  1.00  0.00     0.014 A   
ATOM     28  C18 UNL     1       2.452   6.441  -2.333  1.00  0.00     0.001 A   
ATOM     29  C20 UNL     1       2.345   4.744  -4.046  1.00  0.00     0.001 A   
ATOM     30  C19 UNL     1       2.706   6.027  -3.638  1.00  0.00     0.000 A   
ENDBRANCH  23  25
ENDBRANCH  21  23
ENDBRANCH   1  18
TORSDOF 7
