REMARK SMILES CC[C@@H](c1ccccn1)n1cc([C@@H]([NH2+]Cc2ccc3c(c2)OCO3)C2CCCC2)nn1
REMARK SMILES IDX 10 1 11 2 12 3 30 4 31 5 3 7 2 8 1 9 4 10 5 11 9 12 6 13
REMARK SMILES IDX 8 14 7 15 13 16 14 17 15 20 16 21 17 22 21 23 18 24 20 25
REMARK SMILES IDX 19 26 22 27 24 28 23 29 25 30 26 31 29 32 27 33 28 34
REMARK H PARENT 11 6 14 18 14 19
ROOT
ATOM     1   N2  UNL     1       0.740  -1.676   1.038  1.00  0.00    -0.203 N   
ATOM     2   C9  UNL     1      -0.074  -0.595   0.823  1.00  0.00     0.046 A   
ATOM     3   C10 UNL     1      -0.434  -0.705  -0.500  1.00  0.00     0.127 A   
ATOM     4   N4  UNL     1       0.113  -1.847  -1.024  1.00  0.00    -0.132 NA  
ATOM     5   N5  UNL     1       0.841  -2.424  -0.082  1.00  0.00    -0.075 NA  
ATOM     6   H11 UNL     1      -0.246   0.154   1.585  1.00  0.00     0.083 HD  
ENDROOT
BRANCH   1   7
ATOM     7   C3  UNL     1       1.535  -1.957   2.229  1.00  0.00     0.148 C   
BRANCH   7   8
ATOM     8   C2  UNL     1       1.640  -3.454   2.580  1.00  0.00     0.028 C   
ATOM     9   C1  UNL     1       0.299  -4.053   2.989  1.00  0.00     0.006 C   
ENDBRANCH   7   8
BRANCH   7  10
ATOM     10  C4  UNL     1       2.863  -1.233   2.077  1.00  0.00     0.063 A   
ATOM     11  C5  UNL     1       3.992  -1.839   1.529  1.00  0.00     0.026 A   
ATOM     12  N1  UNL     1       2.867   0.074   2.459  1.00  0.00    -0.259 NA  
ATOM     13  C6  UNL     1       5.164  -1.096   1.401  1.00  0.00     0.004 A   
ATOM     14  C8  UNL     1       4.021   0.768   2.331  1.00  0.00     0.111 A   
ATOM     15  C7  UNL     1       5.184   0.230   1.812  1.00  0.00     0.020 A   
ENDBRANCH   7  10
ENDBRANCH   1   7
BRANCH   3  16
ATOM     16  C11 UNL     1      -1.177   0.239  -1.383  1.00  0.00     0.117 C   
BRANCH  16  17
ATOM     17  N3  UNL     1      -0.458   0.389  -2.710  1.00  0.00     0.249 N   
ATOM     18  H13 UNL     1      -0.425  -0.550  -3.129  1.00  0.00     0.199 HD  
ATOM     19  H14 UNL     1      -0.998   0.989  -3.337  1.00  0.00     0.199 HD  
BRANCH  17  20
ATOM     20  C12 UNL     1       0.950   0.892  -2.657  1.00  0.00     0.164 C   
BRANCH  20  21
ATOM     21  C13 UNL     1       1.083   2.250  -2.026  1.00  0.00    -0.002 A   
ATOM     22  C14 UNL     1       0.580   3.401  -2.679  1.00  0.00     0.012 A   
ATOM     23  C18 UNL     1       1.696   2.381  -0.766  1.00  0.00     0.045 A   
ATOM     24  C15 UNL     1       0.676   4.663  -2.083  1.00  0.00     0.037 A   
ATOM     25  C17 UNL     1       1.777   3.640  -0.209  1.00  0.00     0.109 A   
ATOM     26  C16 UNL     1       1.279   4.748  -0.847  1.00  0.00     0.108 A   
ATOM     27  O1  UNL     1       2.335   3.940   0.994  1.00  0.00    -0.316 OA  
ATOM     28  O2  UNL     1       1.457   5.886  -0.127  1.00  0.00    -0.316 OA  
ATOM     29  C19 UNL     1       2.142   5.372   1.036  1.00  0.00     0.337 C   
ENDBRANCH  20  21
ENDBRANCH  17  20
ENDBRANCH  16  17
BRANCH  16  30
ATOM     30  C20 UNL     1      -2.614  -0.243  -1.663  1.00  0.00     0.043 C   
ATOM     31  C21 UNL     1      -3.483  -0.319  -0.403  1.00  0.00     0.010 C   
ATOM     32  C24 UNL     1      -3.436   0.699  -2.548  1.00  0.00     0.010 C   
ATOM     33  C22 UNL     1      -4.906  -0.406  -0.940  1.00  0.00     0.001 C   
ATOM     34  C23 UNL     1      -4.890   0.318  -2.284  1.00  0.00     0.001 C   
ENDBRANCH  16  30
ENDBRANCH   3  16
TORSDOF 8
