REMARK SMILES CC[C@H](c1ccccn1)n1cc([C@@H]([NH2+]Cc2ccc3c(c2)OCO3)C2CCCC2)nn1
REMARK SMILES IDX 10 1 11 2 12 3 30 4 31 5 3 7 2 8 1 9 4 10 5 11 9 12 6 13
REMARK SMILES IDX 8 14 7 15 13 16 14 17 15 20 16 21 17 22 21 23 18 24 20 25
REMARK SMILES IDX 19 26 22 27 24 28 23 29 25 30 26 31 29 32 27 33 28 34
REMARK H PARENT 11 6 14 18 14 19
ROOT
ATOM     1   N2  UNL     1       0.807   0.232   1.044  1.00  0.00    -0.203 N   
ATOM     2   C9  UNL     1       0.964  -0.960   0.387  1.00  0.00     0.046 A   
ATOM     3   C10 UNL     1       1.509  -0.606  -0.825  1.00  0.00     0.127 A   
ATOM     4   N4  UNL     1       1.680   0.753  -0.865  1.00  0.00    -0.132 NA  
ATOM     5   N5  UNL     1       1.248   1.255   0.281  1.00  0.00    -0.075 NA  
ATOM     6   H11 UNL     1       0.665  -1.902   0.827  1.00  0.00     0.083 HD  
ENDROOT
BRANCH   1   7
ATOM     7   C3  UNL     1       0.298   0.479   2.388  1.00  0.00     0.148 C   
BRANCH   7   8
ATOM     8   C2  UNL     1       1.195  -0.133   3.482  1.00  0.00     0.028 C   
ATOM     9   C1  UNL     1       2.578   0.505   3.538  1.00  0.00     0.006 C   
ENDBRANCH   7   8
BRANCH   7  10
ATOM     10  C4  UNL     1      -1.137  -0.014   2.485  1.00  0.00     0.063 A   
ATOM     11  C5  UNL     1      -2.196   0.885   2.365  1.00  0.00     0.026 A   
ATOM     12  N1  UNL     1      -1.341  -1.347   2.671  1.00  0.00    -0.259 NA  
ATOM     13  C6  UNL     1      -3.501   0.410   2.466  1.00  0.00     0.004 A   
ATOM     14  C8  UNL     1      -2.619  -1.776   2.778  1.00  0.00     0.111 A   
ATOM     15  C7  UNL     1      -3.720  -0.944   2.681  1.00  0.00     0.020 A   
ENDBRANCH   7  10
ENDBRANCH   1   7
BRANCH   3  16
ATOM     16  C11 UNL     1       1.863  -1.427  -2.019  1.00  0.00     0.117 C   
BRANCH  16  17
ATOM     17  N3  UNL     1       1.511  -0.660  -3.278  1.00  0.00     0.249 N   
ATOM     18  H13 UNL     1       1.615   0.339  -3.037  1.00  0.00     0.199 HD  
ATOM     19  H14 UNL     1       2.191  -0.841  -4.021  1.00  0.00     0.199 HD  
BRANCH  17  20
ATOM     20  C12 UNL     1       0.138  -0.872  -3.818  1.00  0.00     0.164 C   
BRANCH  20  21
ATOM     21  C13 UNL     1      -0.944  -0.224  -3.002  1.00  0.00    -0.002 A   
ATOM     22  C14 UNL     1      -1.770  -0.997  -2.152  1.00  0.00     0.012 A   
ATOM     23  C18 UNL     1      -1.125   1.170  -3.058  1.00  0.00     0.045 A   
ATOM     24  C15 UNL     1      -2.757  -0.394  -1.364  1.00  0.00     0.037 A   
ATOM     25  C17 UNL     1      -2.109   1.731  -2.272  1.00  0.00     0.109 A   
ATOM     26  C16 UNL     1      -2.902   0.973  -1.448  1.00  0.00     0.108 A   
ATOM     27  O1  UNL     1      -2.413   3.054  -2.213  1.00  0.00    -0.316 OA  
ATOM     28  O2  UNL     1      -3.805   1.723  -0.764  1.00  0.00    -0.316 OA  
ATOM     29  C19 UNL     1      -3.501   3.043  -1.263  1.00  0.00     0.337 C   
ENDBRANCH  20  21
ENDBRANCH  17  20
ENDBRANCH  16  17
BRANCH  16  30
ATOM     30  C20 UNL     1       3.366  -1.772  -2.058  1.00  0.00     0.043 C   
ATOM     31  C21 UNL     1       3.838  -2.590  -0.851  1.00  0.00     0.010 C   
ATOM     32  C24 UNL     1       3.776  -2.656  -3.247  1.00  0.00     0.010 C   
ATOM     33  C22 UNL     1       5.182  -3.131  -1.309  1.00  0.00     0.001 C   
ATOM     34  C23 UNL     1       4.968  -3.490  -2.772  1.00  0.00     0.001 C   
ENDBRANCH  16  30
ENDBRANCH   3  16
TORSDOF 8
