REMARK SMILES CC(C)[C@H]([NH2+]Cc1ccc2c(c1)OCO2)c1cn(Cc2ccc(F)cc2)nn1
REMARK SMILES IDX 16 1 17 2 18 3 27 4 28 5 4 7 2 8 1 9 3 10 5 11 6 14 7 15
REMARK SMILES IDX 8 16 12 17 9 18 11 19 10 20 13 21 15 22 14 23 19 24 20 25
REMARK SMILES IDX 21 26 26 27 22 28 25 29 23 30 24 31
REMARK H PARENT 17 6 5 12 5 13
ROOT
ATOM     1   C13 UNL     1      -1.038   0.788   1.379  1.00  0.00     0.127 A   
ATOM     2   C14 UNL     1      -2.357   0.954   1.736  1.00  0.00     0.046 A   
ATOM     3   N2  UNL     1      -2.622   2.263   1.433  1.00  0.00    -0.208 N   
ATOM     4   N3  UNL     1      -1.527   2.870   0.936  1.00  0.00    -0.076 NA  
ATOM     5   N4  UNL     1      -0.548   1.981   0.908  1.00  0.00    -0.132 NA  
ATOM     6   H18 UNL     1      -3.108   0.293   2.149  1.00  0.00     0.083 HD  
ENDROOT
BRANCH   1   7
ATOM     7   C4  UNL     1      -0.148  -0.417   1.415  1.00  0.00     0.117 C   
BRANCH   7   8
ATOM     8   C2  UNL     1       0.248  -0.810   2.863  1.00  0.00     0.037 C   
ATOM     9   C1  UNL     1       1.173   0.202   3.549  1.00  0.00     0.014 C   
ATOM     10  C3  UNL     1       0.876  -2.207   2.918  1.00  0.00     0.014 C   
ENDBRANCH   7   8
BRANCH   7  11
ATOM     11  N1  UNL     1       1.085  -0.192   0.583  1.00  0.00     0.249 N   
ATOM     12  H9  UNL     1       1.405   0.768   0.779  1.00  0.00     0.199 HD  
ATOM     13  H10 UNL     1       1.854  -0.811   0.854  1.00  0.00     0.199 HD  
BRANCH  11  14
ATOM     14  C5  UNL     1       0.891  -0.291  -0.891  1.00  0.00     0.164 C   
BRANCH  14  15
ATOM     15  C6  UNL     1       2.178   0.021  -1.602  1.00  0.00    -0.002 A   
ATOM     16  C7  UNL     1       2.494   1.359  -1.944  1.00  0.00     0.012 A   
ATOM     17  C11 UNL     1       3.104  -1.001  -1.869  1.00  0.00     0.045 A   
ATOM     18  C8  UNL     1       3.713   1.674  -2.554  1.00  0.00     0.037 A   
ATOM     19  C10 UNL     1       4.298  -0.654  -2.467  1.00  0.00     0.109 A   
ATOM     20  C9  UNL     1       4.595   0.644  -2.801  1.00  0.00     0.108 A   
ATOM     21  O1  UNL     1       5.301  -1.514  -2.784  1.00  0.00    -0.316 OA  
ATOM     22  O2  UNL     1       5.819   0.764  -3.376  1.00  0.00    -0.316 OA  
ATOM     23  C12 UNL     1       6.269  -0.606  -3.357  1.00  0.00     0.337 C   
ENDBRANCH  14  15
ENDBRANCH  11  14
ENDBRANCH   7  11
ENDBRANCH   1   7
BRANCH   3  24
ATOM     24  C15 UNL     1      -3.865   2.998   1.606  1.00  0.00     0.169 C   
BRANCH  24  25
ATOM     25  C16 UNL     1      -4.964   2.429   0.743  1.00  0.00    -0.028 A   
ATOM     26  C17 UNL     1      -4.945   2.618  -0.650  1.00  0.00     0.008 A   
ATOM     27  C21 UNL     1      -6.017   1.697   1.318  1.00  0.00     0.008 A   
ATOM     28  C18 UNL     1      -5.954   2.080  -1.449  1.00  0.00     0.039 A   
ATOM     29  C20 UNL     1      -7.024   1.160   0.515  1.00  0.00     0.039 A   
ATOM     30  C19 UNL     1      -6.982   1.355  -0.860  1.00  0.00     0.123 A   
ATOM     31  F1  UNL     1      -7.948   0.835  -1.629  1.00  0.00    -0.207 F   
ENDBRANCH  24  25
ENDBRANCH   3  24
TORSDOF 7
