REMARK SMILES [O-][S+]([O-])c1ccc(Cn2cc([C@@H]([NH2+]Cc3ccc4c(c3)OCO4)C3CCCCC3)nn2)cc1
REMARK SMILES IDX 9 1 10 2 11 3 30 4 31 5 8 7 7 8 4 9 5 10 33 11 6 12 32 13
REMARK SMILES IDX 2 14 1 15 3 16 12 17 13 18 14 21 15 22 16 23 20 24 17 25
REMARK SMILES IDX 19 26 18 27 21 28 23 29 22 30 24 31 25 32 29 33 26 34 28 35
REMARK SMILES IDX 27 36
REMARK H PARENT 10 6 13 19 13 20
ROOT
ATOM     1   N1  UNL     1       0.251  -1.435  -3.211  1.00  0.00    -0.208 N   
ATOM     2   C6  UNL     1       0.892  -1.508  -1.995  1.00  0.00     0.046 A   
ATOM     3   C7  UNL     1       0.723  -0.254  -1.448  1.00  0.00     0.127 A   
ATOM     4   N3  UNL     1       0.197   0.571  -2.412  1.00  0.00    -0.132 NA  
ATOM     5   N4  UNL     1      -0.068  -0.154  -3.491  1.00  0.00    -0.076 NA  
ATOM     6   H5  UNL     1       1.234  -2.446  -1.584  1.00  0.00     0.083 HD  
ENDROOT
BRANCH   1   7
ATOM     7   C5  UNL     1      -0.426  -2.537  -3.907  1.00  0.00     0.169 C   
BRANCH   7   8
ATOM     8   C4  UNL     1      -1.392  -3.154  -2.909  1.00  0.00    -0.028 A   
ATOM     9   C1  UNL     1      -2.312  -3.336  -0.320  1.00  0.00     0.167 A   
ATOM     10  C2  UNL     1      -1.396  -4.283  -0.783  1.00  0.00     0.063 A   
ATOM     11  C24 UNL     1      -2.961  -2.480  -1.209  1.00  0.00     0.063 A   
ATOM     12  C3  UNL     1      -0.943  -4.207  -2.096  1.00  0.00     0.010 A   
ATOM     13  C23 UNL     1      -2.509  -2.395  -2.520  1.00  0.00     0.010 A   
BRANCH   9  14
ATOM     14  S1  UNL     1      -2.296  -2.933   1.459  1.00  0.00     0.041 S   
ATOM     15  O1  UNL     1      -3.351  -1.875   1.679  1.00  0.00    -0.672 OA  
ATOM     16  O2  UNL     1      -0.898  -2.386   1.686  1.00  0.00    -0.672 OA  
ENDBRANCH   9  14
ENDBRANCH   7   8
ENDBRANCH   1   7
BRANCH   3  17
ATOM     17  C8  UNL     1       0.957   0.261  -0.052  1.00  0.00     0.117 C   
BRANCH  17  18
ATOM     18  N2  UNL     1      -0.151  -0.048   0.894  1.00  0.00     0.249 N   
ATOM     19  H7  UNL     1      -0.356  -1.078   0.939  1.00  0.00     0.199 HD  
ATOM     20  H8  UNL     1       0.089   0.149   1.863  1.00  0.00     0.199 HD  
BRANCH  18  21
ATOM     21  C9  UNL     1      -1.480   0.577   0.635  1.00  0.00     0.164 C   
BRANCH  21  22
ATOM     22  C10 UNL     1      -1.453   2.084   0.710  1.00  0.00    -0.002 A   
ATOM     23  C11 UNL     1      -1.336   2.733   1.964  1.00  0.00     0.012 A   
ATOM     24  C15 UNL     1      -1.525   2.855  -0.463  1.00  0.00     0.045 A   
ATOM     25  C12 UNL     1      -1.285   4.128   2.051  1.00  0.00     0.037 A   
ATOM     26  C14 UNL     1      -1.474   4.228  -0.344  1.00  0.00     0.109 A   
ATOM     27  C13 UNL     1      -1.356   4.846   0.878  1.00  0.00     0.108 A   
ATOM     28  O3  UNL     1      -1.529   5.116  -1.372  1.00  0.00    -0.316 OA  
ATOM     29  O4  UNL     1      -1.324   6.202   0.772  1.00  0.00    -0.316 OA  
ATOM     30  C16 UNL     1      -1.469   6.367  -0.655  1.00  0.00     0.337 C   
ENDBRANCH  21  22
ENDBRANCH  18  21
ENDBRANCH  17  18
BRANCH  17  31
ATOM     31  C17 UNL     1       2.358  -0.140   0.512  1.00  0.00     0.043 C   
ATOM     32  C18 UNL     1       3.002   0.978   1.361  1.00  0.00     0.010 C   
ATOM     33  C22 UNL     1       2.455  -1.511   1.214  1.00  0.00     0.010 C   
ATOM     34  C19 UNL     1       2.623   0.958   2.835  1.00  0.00     0.001 C   
ATOM     35  C21 UNL     1       2.178  -1.509   2.719  1.00  0.00     0.001 C   
ATOM     36  C20 UNL     1       2.919  -0.401   3.451  1.00  0.00     0.000 C   
ENDBRANCH  17  31
ENDBRANCH   3  17
TORSDOF 8
