REMARK SMILES CC(C)C[C@H]([NH2+]Cc1ccc2c(c1)OCO2)c1cn(CCc2c[nH]c3ncccc23)nn1
REMARK SMILES IDX 17 1 18 2 19 3 31 4 32 5 5 7 4 8 2 9 1 10 3 11 6 12 7 15
REMARK SMILES IDX 8 16 9 17 13 18 10 19 12 20 11 21 14 22 16 23 15 24 20 25
REMARK SMILES IDX 21 26 22 27 23 28 30 29 24 30 25 31 29 32 26 33 28 34 27 35
REMARK H PARENT 18 6 6 13 6 14 24 36
ROOT
ATOM     1   C14 UNL     1       1.718  -0.540   0.964  1.00  0.00     0.127 A   
ATOM     2   C15 UNL     1       2.570   0.077   0.075  1.00  0.00     0.045 A   
ATOM     3   N2  UNL     1       3.600  -0.813  -0.058  1.00  0.00    -0.212 N   
ATOM     4   N5  UNL     1       3.454  -1.850   0.786  1.00  0.00    -0.076 NA  
ATOM     5   N6  UNL     1       2.286  -1.709   1.397  1.00  0.00    -0.132 NA  
ATOM     6   H20 UNL     1       2.491   0.968  -0.533  1.00  0.00     0.083 HD  
ENDROOT
BRANCH   1   7
ATOM     7   C5  UNL     1       0.314  -0.196   1.332  1.00  0.00     0.114 C   
BRANCH   7   8
ATOM     8   C4  UNL     1       0.038  -0.239   2.846  1.00  0.00     0.064 C   
BRANCH   8   9
ATOM     9   C2  UNL     1       0.687   0.864   3.715  1.00  0.00    -0.012 C   
ATOM     10  C1  UNL     1       0.360   2.273   3.220  1.00  0.00     0.007 C   
ATOM     11  C3  UNL     1       2.194   0.697   3.900  1.00  0.00     0.007 C   
ENDBRANCH   8   9
ENDBRANCH   7   8
BRANCH   7  12
ATOM     12  N1  UNL     1      -0.576  -1.205   0.631  1.00  0.00     0.249 N   
ATOM     13  H11 UNL     1      -0.380  -2.129   1.036  1.00  0.00     0.199 HD  
ATOM     14  H12 UNL     1      -0.242  -1.296  -0.341  1.00  0.00     0.199 HD  
BRANCH  12  15
ATOM     15  C6  UNL     1      -2.039  -0.953   0.566  1.00  0.00     0.164 C   
BRANCH  15  16
ATOM     16  C7  UNL     1      -2.390   0.353  -0.090  1.00  0.00    -0.002 A   
ATOM     17  C8  UNL     1      -2.824   1.454   0.686  1.00  0.00     0.012 A   
ATOM     18  C12 UNL     1      -2.249   0.504  -1.481  1.00  0.00     0.045 A   
ATOM     19  C9  UNL     1      -3.101   2.690   0.091  1.00  0.00     0.037 A   
ATOM     20  C11 UNL     1      -2.525   1.736  -2.036  1.00  0.00     0.109 A   
ATOM     21  C10 UNL     1      -2.938   2.799  -1.272  1.00  0.00     0.108 A   
ATOM     22  O1  UNL     1      -2.420   2.051  -3.353  1.00  0.00    -0.316 OA  
ATOM     23  O2  UNL     1      -3.153   3.916  -2.013  1.00  0.00    -0.316 OA  
ATOM     24  C13 UNL     1      -2.869   3.426  -3.341  1.00  0.00     0.337 C   
ENDBRANCH  15  16
ENDBRANCH  12  15
ENDBRANCH   7  12
ENDBRANCH   1   7
BRANCH   3  25
ATOM     25  C16 UNL     1       4.573  -0.860  -1.132  1.00  0.00     0.139 C   
BRANCH  25  26
ATOM     26  C17 UNL     1       4.211  -1.887  -2.215  1.00  0.00     0.059 C   
BRANCH  26  27
ATOM     27  C18 UNL     1       2.775  -1.803  -2.652  1.00  0.00    -0.022 A   
ATOM     28  C19 UNL     1       2.206  -0.845  -3.473  1.00  0.00     0.077 A   
ATOM     29  C24 UNL     1       1.715  -2.674  -2.242  1.00  0.00     0.019 A   
ATOM     30  N3  UNL     1       0.855  -1.082  -3.545  1.00  0.00    -0.305 N   
ATOM     31  C20 UNL     1       0.534  -2.155  -2.758  1.00  0.00     0.129 A   
ATOM     32  C23 UNL     1       1.611  -3.833  -1.451  1.00  0.00     0.013 A   
ATOM     33  N4  UNL     1      -0.717  -2.604  -2.538  1.00  0.00    -0.241 NA  
ATOM     34  C22 UNL     1       0.349  -4.403  -1.288  1.00  0.00     0.021 A   
ATOM     35  C21 UNL     1      -0.748  -3.773  -1.855  1.00  0.00     0.113 A   
ATOM     36  H26 UNL     1       0.185  -0.559  -4.093  1.00  0.00     0.154 HD  
ENDBRANCH  26  27
ENDBRANCH  25  26
ENDBRANCH   3  25
TORSDOF 9
