REMARK SMILES Cc1ccc(O)c(CCn2cc([C@H](CC(C)C)[NH2+]Cc3ccc4c(c3)OCO4)nn2)c1
REMARK SMILES IDX 10 1 11 2 12 3 29 4 30 5 9 7 8 8 7 9 2 10 3 11 31 12 4 13
REMARK SMILES IDX 5 14 1 15 6 16 13 18 14 19 15 20 16 21 17 22 18 23 19 26
REMARK SMILES IDX 20 27 21 28 25 29 22 30 24 31 23 32 26 33 28 34 27 35
REMARK H PARENT 11 6 6 17 18 24 18 25
ROOT
ATOM     1   N1  UNL     1       2.989  -1.093   0.084  1.00  0.00    -0.212 N   
ATOM     2   C9  UNL     1       2.382  -0.160  -0.709  1.00  0.00     0.045 A   
ATOM     3   C10 UNL     1       2.549   1.018  -0.018  1.00  0.00     0.127 A   
ATOM     4   N3  UNL     1       3.246   0.771   1.137  1.00  0.00    -0.132 NA  
ATOM     5   N4  UNL     1       3.508  -0.525   1.188  1.00  0.00    -0.076 NA  
ATOM     6   H11 UNL     1       1.880  -0.423  -1.630  1.00  0.00     0.083 HD  
ENDROOT
BRANCH   1   7
ATOM     7   C8  UNL     1       3.054  -2.524  -0.118  1.00  0.00     0.139 C   
BRANCH   7   8
ATOM     8   C7  UNL     1       2.110  -3.298   0.805  1.00  0.00     0.059 C   
BRANCH   8   9
ATOM     9   C6  UNL     1       0.655  -2.896   0.692  1.00  0.00    -0.016 A   
ATOM     10  C2  UNL     1      -1.341  -1.932   1.721  1.00  0.00    -0.051 A   
ATOM     11  C3  UNL     1      -2.056  -2.180   0.545  1.00  0.00     0.006 A   
ATOM     12  C24 UNL     1       0.009  -2.303   1.790  1.00  0.00     0.010 A   
ATOM     13  C4  UNL     1      -1.427  -2.766  -0.555  1.00  0.00     0.034 A   
ATOM     14  C5  UNL     1      -0.083  -3.119  -0.474  1.00  0.00     0.074 A   
ATOM     15  C1  UNL     1      -2.031  -1.348   2.919  1.00  0.00     0.044 C   
BRANCH  14  16
ATOM     16  O1  UNL     1       0.538  -3.695  -1.545  1.00  0.00    -0.361 OA  
ATOM     17  H6  UNL     1      -0.144  -4.009  -2.165  1.00  0.00     0.218 HD  
ENDBRANCH  14  16
ENDBRANCH   8   9
ENDBRANCH   7   8
ENDBRANCH   1   7
BRANCH   3  18
ATOM     18  C11 UNL     1       2.032   2.389  -0.283  1.00  0.00     0.114 C   
BRANCH  18  19
ATOM     19  C12 UNL     1       3.131   3.358  -0.760  1.00  0.00     0.064 C   
BRANCH  19  20
ATOM     20  C13 UNL     1       3.789   2.989  -2.107  1.00  0.00    -0.012 C   
ATOM     21  C14 UNL     1       4.902   3.991  -2.428  1.00  0.00     0.007 C   
ATOM     22  C15 UNL     1       2.782   2.952  -3.258  1.00  0.00     0.007 C   
ENDBRANCH  19  20
ENDBRANCH  18  19
BRANCH  18  23
ATOM     23  N2  UNL     1       1.455   2.971   0.993  1.00  0.00     0.249 N   
ATOM     24  H22 UNL     1       2.198   2.890   1.702  1.00  0.00     0.199 HD  
ATOM     25  H23 UNL     1       1.256   3.967   0.868  1.00  0.00     0.199 HD  
BRANCH  23  26
ATOM     26  C16 UNL     1       0.245   2.288   1.542  1.00  0.00     0.164 C   
BRANCH  26  27
ATOM     27  C17 UNL     1      -0.970   2.462   0.674  1.00  0.00    -0.002 A   
ATOM     28  C18 UNL     1      -1.697   3.676   0.691  1.00  0.00     0.012 A   
ATOM     29  C22 UNL     1      -1.373   1.427  -0.187  1.00  0.00     0.045 A   
ATOM     30  C19 UNL     1      -2.812   3.856  -0.135  1.00  0.00     0.037 A   
ATOM     31  C21 UNL     1      -2.477   1.636  -0.987  1.00  0.00     0.109 A   
ATOM     32  C20 UNL     1      -3.175   2.817  -0.963  1.00  0.00     0.108 A   
ATOM     33  O2  UNL     1      -2.994   0.743  -1.871  1.00  0.00    -0.316 OA  
ATOM     34  O3  UNL     1      -4.224   2.817  -1.826  1.00  0.00    -0.316 OA  
ATOM     35  C23 UNL     1      -4.122   1.489  -2.384  1.00  0.00     0.337 C   
ENDBRANCH  26  27
ENDBRANCH  23  26
ENDBRANCH  18  23
ENDBRANCH   3  18
TORSDOF 10
