REMARK SMILES COc1nccc(Cl)c1Cn1cc([C@@H]([NH2+]Cc2ccc3c(c2)OCO3)C(C)(C)C)nn1
REMARK SMILES IDX 11 1 12 2 13 3 30 4 31 5 10 7 9 8 3 9 4 10 5 11 7 12 6 13
REMARK SMILES IDX 8 14 2 15 1 16 14 17 15 18 16 21 17 22 18 23 22 24 19 25
REMARK SMILES IDX 21 26 20 27 23 28 25 29 24 30 26 31 27 32 28 33 29 34
REMARK H PARENT 12 6 15 19 15 20
ROOT
ATOM     1   N2  UNL     1       1.018  -0.280  -2.878  1.00  0.00    -0.208 N   
ATOM     2   C8  UNL     1       1.335  -0.353  -1.550  1.00  0.00     0.046 A   
ATOM     3   C9  UNL     1       0.619  -1.437  -1.094  1.00  0.00     0.127 A   
ATOM     4   N4  UNL     1      -0.080  -1.985  -2.138  1.00  0.00    -0.132 NA  
ATOM     5   N5  UNL     1       0.174  -1.273  -3.223  1.00  0.00    -0.076 NA  
ATOM     6   H8  UNL     1       1.983   0.368  -1.069  1.00  0.00     0.083 HD  
ENDROOT
BRANCH   1   7
ATOM     7   C7  UNL     1       1.442   0.713  -3.852  1.00  0.00     0.175 C   
BRANCH   7   8
ATOM     8   C6  UNL     1       0.336   1.688  -4.146  1.00  0.00     0.040 A   
ATOM     9   C2  UNL     1       0.026   2.700  -3.240  1.00  0.00     0.173 A   
ATOM     10  N1  UNL     1      -0.976   3.588  -3.407  1.00  0.00    -0.232 NA  
ATOM     11  C3  UNL     1      -1.704   3.498  -4.537  1.00  0.00     0.115 A   
ATOM     12  C5  UNL     1      -0.457   1.626  -5.297  1.00  0.00     0.051 A   
ATOM     13  C4  UNL     1      -1.485   2.541  -5.504  1.00  0.00     0.041 A   
ATOM     14  CL1 UNL     1      -0.213   0.426  -6.515  1.00  0.00    -0.084 Cl  
BRANCH   9  15
ATOM     15  O1  UNL     1       0.780   2.766  -2.082  1.00  0.00    -0.332 OA  
ATOM     16  C1  UNL     1       0.527   3.942  -1.313  1.00  0.00     0.205 C   
ENDBRANCH   9  15
ENDBRANCH   7   8
ENDBRANCH   1   7
BRANCH   3  17
ATOM     17  C10 UNL     1       0.429  -1.975   0.290  1.00  0.00     0.120 C   
BRANCH  17  18
ATOM     18  N3  UNL     1      -1.034  -2.330   0.489  1.00  0.00     0.250 N   
ATOM     19  H10 UNL     1      -1.172  -2.828   1.369  1.00  0.00     0.199 HD  
ATOM     20  H11 UNL     1      -1.281  -2.973  -0.276  1.00  0.00     0.199 HD  
BRANCH  18  21
ATOM     21  C11 UNL     1      -2.010  -1.196   0.425  1.00  0.00     0.164 C   
BRANCH  21  22
ATOM     22  C12 UNL     1      -1.785  -0.158   1.488  1.00  0.00    -0.002 A   
ATOM     23  C13 UNL     1      -2.088  -0.437   2.842  1.00  0.00     0.012 A   
ATOM     24  C17 UNL     1      -1.236   1.091   1.144  1.00  0.00     0.045 A   
ATOM     25  C14 UNL     1      -1.842   0.510   3.842  1.00  0.00     0.037 A   
ATOM     26  C16 UNL     1      -1.004   2.000   2.154  1.00  0.00     0.109 A   
ATOM     27  C15 UNL     1      -1.298   1.718   3.465  1.00  0.00     0.108 A   
ATOM     28  O2  UNL     1      -0.470   3.240   1.996  1.00  0.00    -0.316 OA  
ATOM     29  O3  UNL     1      -0.991   2.747   4.298  1.00  0.00    -0.316 OA  
ATOM     30  C18 UNL     1      -0.500   3.726   3.358  1.00  0.00     0.337 C   
ENDBRANCH  21  22
ENDBRANCH  18  21
ENDBRANCH  17  18
BRANCH  17  31
ATOM     31  C19 UNL     1       1.342  -3.206   0.633  1.00  0.00     0.010 C   
ATOM     32  C20 UNL     1       2.828  -2.833   0.428  1.00  0.00     0.017 C   
ATOM     33  C21 UNL     1       1.177  -3.599   2.119  1.00  0.00     0.017 C   
ATOM     34  C22 UNL     1       1.032  -4.446  -0.229  1.00  0.00     0.017 C   
ENDBRANCH  17  31
ENDBRANCH   3  17
TORSDOF 8
