REMARK SMILES OC[C@@H](c1ccc(F)cc1)n1cc([C@@H]([NH2+]Cc2ccc3c(c2)OCO3)C2CCCCC2)nn1
REMARK SMILES IDX 11 1 12 2 13 3 32 4 33 5 3 7 2 8 1 9 4 11 5 12 10 13 6 14
REMARK SMILES IDX 9 15 7 16 8 17 14 18 15 19 16 22 17 23 18 24 22 25 19 26
REMARK SMILES IDX 21 27 20 28 23 29 25 30 24 31 26 32 27 33 31 34 28 35 30 36
REMARK SMILES IDX 29 37
REMARK H PARENT 12 6 1 10 15 20 15 21
ROOT
ATOM     1   N1  UNL     1       0.733  -3.567   0.403  1.00  0.00    -0.202 N   
ATOM     2   C9  UNL     1       0.884  -2.213   0.547  1.00  0.00     0.046 A   
ATOM     3   C10 UNL     1       0.403  -1.691  -0.631  1.00  0.00     0.127 A   
ATOM     4   N3  UNL     1       0.058  -2.721  -1.469  1.00  0.00    -0.132 NA  
ATOM     5   N4  UNL     1       0.267  -3.861  -0.830  1.00  0.00    -0.075 NA  
ATOM     6   H9  UNL     1       1.268  -1.771   1.456  1.00  0.00     0.083 HD  
ENDROOT
BRANCH   1   7
ATOM     7   C2  UNL     1       0.942  -4.631   1.384  1.00  0.00     0.155 C   
BRANCH   7   8
ATOM     8   C1  UNL     1       2.413  -5.086   1.415  1.00  0.00     0.185 C   
BRANCH   8   9
ATOM     9   O1  UNL     1       3.323  -4.018   1.683  1.00  0.00    -0.394 OA  
ATOM     10  H1  UNL     1       4.208  -4.420   1.780  1.00  0.00     0.210 HD  
ENDBRANCH   8   9
ENDBRANCH   7   8
BRANCH   7  11
ATOM     11  C3  UNL     1       0.295  -4.267   2.719  1.00  0.00    -0.023 A   
ATOM     12  C4  UNL     1      -1.104  -4.386   2.851  1.00  0.00     0.009 A   
ATOM     13  C8  UNL     1       1.029  -3.783   3.816  1.00  0.00     0.009 A   
ATOM     14  C5  UNL     1      -1.743  -4.037   4.042  1.00  0.00     0.039 A   
ATOM     15  C7  UNL     1       0.386  -3.435   5.007  1.00  0.00     0.039 A   
ATOM     16  C6  UNL     1      -0.993  -3.564   5.109  1.00  0.00     0.123 A   
ATOM     17  F1  UNL     1      -1.607  -3.219   6.247  1.00  0.00    -0.207 F   
ENDBRANCH   7  11
ENDBRANCH   1   7
BRANCH   3  18
ATOM     18  C11 UNL     1       0.251  -0.276  -1.097  1.00  0.00     0.117 C   
BRANCH  18  19
ATOM     19  N2  UNL     1       0.483  -0.266  -2.592  1.00  0.00     0.249 N   
ATOM     20  H11 UNL     1       1.396  -0.712  -2.740  1.00  0.00     0.199 HD  
ATOM     21  H12 UNL     1      -0.179  -0.935  -3.006  1.00  0.00     0.199 HD  
BRANCH  19  22
ATOM     22  C12 UNL     1       0.461   1.020  -3.331  1.00  0.00     0.164 C   
BRANCH  22  23
ATOM     23  C13 UNL     1       1.488   2.006  -2.852  1.00  0.00    -0.002 A   
ATOM     24  C14 UNL     1       1.089   3.188  -2.182  1.00  0.00     0.012 A   
ATOM     25  C18 UNL     1       2.858   1.757  -3.052  1.00  0.00     0.045 A   
ATOM     26  C15 UNL     1       2.034   4.106  -1.713  1.00  0.00     0.037 A   
ATOM     27  C17 UNL     1       3.764   2.684  -2.581  1.00  0.00     0.109 A   
ATOM     28  C16 UNL     1       3.364   3.824  -1.928  1.00  0.00     0.108 A   
ATOM     29  O2  UNL     1       5.115   2.591  -2.686  1.00  0.00    -0.316 OA  
ATOM     30  O3  UNL     1       4.415   4.593  -1.539  1.00  0.00    -0.316 OA  
ATOM     31  C19 UNL     1       5.522   3.838  -2.076  1.00  0.00     0.337 C   
ENDBRANCH  22  23
ENDBRANCH  19  22
ENDBRANCH  18  19
BRANCH  18  32
ATOM     32  C20 UNL     1      -1.124   0.350  -0.736  1.00  0.00     0.043 C   
ATOM     33  C21 UNL     1      -2.337  -0.373  -1.355  1.00  0.00     0.010 C   
ATOM     34  C25 UNL     1      -1.310   0.479   0.790  1.00  0.00     0.010 C   
ATOM     35  C22 UNL     1      -3.649   0.326  -0.997  1.00  0.00     0.001 C   
ATOM     36  C24 UNL     1      -2.618   1.188   1.137  1.00  0.00     0.001 C   
ATOM     37  C23 UNL     1      -3.817   0.483   0.511  1.00  0.00     0.000 C   
ENDBRANCH  18  32
ENDBRANCH   3  18
TORSDOF 9
