REMARK SMILES Cc1ccsc1[C@H](O)Cn1cc([C@@H]([NH2+]Cc2ccc3c(c2)OCO3)C(C)(C)C)nn1
REMARK SMILES IDX 10 1 11 2 12 3 29 4 30 5 9 7 7 8 6 9 2 10 3 11 4 12 5 13
REMARK SMILES IDX 1 14 8 15 13 17 14 18 15 21 16 22 17 23 21 24 18 25 20 26
REMARK SMILES IDX 19 27 22 28 24 29 23 30 25 31 26 32 27 33 28 34
REMARK H PARENT 11 6 8 16 14 19 14 20
ROOT
ATOM     1   N1  UNL     1       1.060   0.354  -1.107  1.00  0.00    -0.209 N   
ATOM     2   C8  UNL     1       0.121  -0.470  -1.660  1.00  0.00     0.046 A   
ATOM     3   C9  UNL     1      -0.997  -0.272  -0.882  1.00  0.00     0.127 A   
ATOM     4   N3  UNL     1      -0.697   0.627   0.112  1.00  0.00    -0.132 NA  
ATOM     5   N4  UNL     1       0.565   0.999  -0.034  1.00  0.00    -0.076 NA  
ATOM     6   H10 UNL     1       0.337  -1.097  -2.516  1.00  0.00     0.083 HD  
ENDROOT
BRANCH   1   7
ATOM     7   C7  UNL     1       2.426   0.575  -1.538  1.00  0.00     0.171 C   
BRANCH   7   8
ATOM     8   C6  UNL     1       3.403  -0.287  -0.739  1.00  0.00     0.171 C   
BRANCH   8   9
ATOM     9   C5  UNL     1       4.841   0.093  -1.005  1.00  0.00     0.022 A   
ATOM     10  C2  UNL     1       5.747   0.680  -0.130  1.00  0.00    -0.038 A   
ATOM     11  C3  UNL     1       7.017   0.888  -0.764  1.00  0.00     0.011 A   
ATOM     12  C4  UNL     1       7.037   0.464  -2.072  1.00  0.00     0.046 A   
ATOM     13  S1  UNL     1       5.540  -0.189  -2.549  1.00  0.00    -0.099 S   
ATOM     14  C1  UNL     1       5.463   1.057   1.289  1.00  0.00     0.045 C   
ENDBRANCH   8   9
BRANCH   8  15
ATOM     15  O1  UNL     1       3.240  -1.668  -1.088  1.00  0.00    -0.386 OA  
ATOM     16  H7  UNL     1       4.046  -2.130  -0.792  1.00  0.00     0.211 HD  
ENDBRANCH   8  15
ENDBRANCH   7   8
ENDBRANCH   1   7
BRANCH   3  17
ATOM     17  C10 UNL     1      -2.354  -0.908  -0.917  1.00  0.00     0.120 C   
BRANCH  17  18
ATOM     18  N2  UNL     1      -2.859  -1.040   0.501  1.00  0.00     0.250 N   
ATOM     19  H12 UNL     1      -2.643  -0.147   0.973  1.00  0.00     0.199 HD  
ATOM     20  H13 UNL     1      -3.875  -1.147   0.548  1.00  0.00     0.199 HD  
BRANCH  18  21
ATOM     21  C11 UNL     1      -2.226  -2.122   1.306  1.00  0.00     0.164 C   
BRANCH  21  22
ATOM     22  C12 UNL     1      -2.768  -2.110   2.707  1.00  0.00    -0.002 A   
ATOM     23  C13 UNL     1      -2.151  -1.313   3.701  1.00  0.00     0.012 A   
ATOM     24  C17 UNL     1      -3.929  -2.836   3.022  1.00  0.00     0.045 A   
ATOM     25  C14 UNL     1      -2.674  -1.249   4.997  1.00  0.00     0.037 A   
ATOM     26  C16 UNL     1      -4.421  -2.746   4.308  1.00  0.00     0.109 A   
ATOM     27  C15 UNL     1      -3.812  -1.976   5.268  1.00  0.00     0.108 A   
ATOM     28  O2  UNL     1      -5.531  -3.376   4.774  1.00  0.00    -0.316 OA  
ATOM     29  O3  UNL     1      -4.460  -2.027   6.461  1.00  0.00    -0.316 OA  
ATOM     30  C18 UNL     1      -5.545  -2.925   6.148  1.00  0.00     0.337 C   
ENDBRANCH  21  22
ENDBRANCH  18  21
ENDBRANCH  17  18
BRANCH  17  31
ATOM     31  C19 UNL     1      -3.402  -0.144  -1.799  1.00  0.00     0.010 C   
ATOM     32  C20 UNL     1      -3.737   1.255  -1.245  1.00  0.00     0.017 C   
ATOM     33  C21 UNL     1      -4.715  -0.956  -1.895  1.00  0.00     0.017 C   
ATOM     34  C22 UNL     1      -2.872   0.019  -3.242  1.00  0.00     0.017 C   
ENDBRANCH  17  31
ENDBRANCH   3  17
TORSDOF 9
