REMARK SMILES COc1c(F)cccc1CCn1cc([C@@H]([NH2+]Cc2ccc3c(c2)OCO3)C(C)C)nn1
REMARK SMILES IDX 12 1 13 2 14 3 30 4 31 5 11 7 10 8 9 9 3 10 4 11 6 12 8 13
REMARK SMILES IDX 7 14 5 15 2 16 1 17 15 18 16 19 17 22 18 23 19 24 23 25
REMARK SMILES IDX 20 26 22 27 21 28 24 29 26 30 25 31 27 32 28 33 29 34
REMARK H PARENT 13 6 16 20 16 21
ROOT
ATOM     1   N1  UNL     1       3.201  -1.034   0.640  1.00  0.00    -0.212 N   
ATOM     2   C10 UNL     1       2.914   0.210   0.153  1.00  0.00     0.045 A   
ATOM     3   C11 UNL     1       1.696   0.509   0.723  1.00  0.00     0.127 A   
ATOM     4   N3  UNL     1       1.347  -0.492   1.594  1.00  0.00    -0.132 NA  
ATOM     5   N4  UNL     1       2.280  -1.426   1.539  1.00  0.00    -0.076 NA  
ATOM     6   H11 UNL     1       3.523   0.695  -0.597  1.00  0.00     0.083 HD  
ENDROOT
BRANCH   1   7
ATOM     7   C9  UNL     1       4.241  -1.945   0.210  1.00  0.00     0.139 C   
BRANCH   7   8
ATOM     8   C8  UNL     1       4.069  -2.426  -1.235  1.00  0.00     0.060 C   
BRANCH   8   9
ATOM     9   C7  UNL     1       2.749  -3.121  -1.490  1.00  0.00    -0.013 A   
ATOM     10  C2  UNL     1       1.671  -2.468  -2.110  1.00  0.00     0.113 A   
ATOM     11  C3  UNL     1       0.440  -3.118  -2.245  1.00  0.00     0.153 A   
ATOM     12  C4  UNL     1       0.273  -4.429  -1.820  1.00  0.00     0.042 A   
ATOM     13  C6  UNL     1       2.571  -4.448  -1.064  1.00  0.00     0.007 A   
ATOM     14  C5  UNL     1       1.345  -5.099  -1.236  1.00  0.00     0.004 A   
ATOM     15  F1  UNL     1      -0.614  -2.458  -2.750  1.00  0.00    -0.204 F   
BRANCH  10  16
ATOM     16  O1  UNL     1       1.819  -1.160  -2.506  1.00  0.00    -0.346 OA  
ATOM     17  C1  UNL     1       1.722  -1.052  -3.930  1.00  0.00     0.203 C   
ENDBRANCH  10  16
ENDBRANCH   8   9
ENDBRANCH   7   8
ENDBRANCH   1   7
BRANCH   3  18
ATOM     18  C12 UNL     1       0.725   1.608   0.444  1.00  0.00     0.117 C   
BRANCH  18  19
ATOM     19  N2  UNL     1      -0.682   1.077   0.520  1.00  0.00     0.249 N   
ATOM     20  H13 UNL     1      -0.742   0.527   1.390  1.00  0.00     0.199 HD  
ATOM     21  H14 UNL     1      -1.377   1.823   0.595  1.00  0.00     0.199 HD  
BRANCH  19  22
ATOM     22  C13 UNL     1      -1.067   0.157  -0.591  1.00  0.00     0.164 C   
BRANCH  22  23
ATOM     23  C14 UNL     1      -2.450  -0.386  -0.363  1.00  0.00    -0.002 A   
ATOM     24  C15 UNL     1      -2.627  -1.582   0.373  1.00  0.00     0.012 A   
ATOM     25  C19 UNL     1      -3.574   0.317  -0.828  1.00  0.00     0.045 A   
ATOM     26  C16 UNL     1      -3.908  -2.082   0.633  1.00  0.00     0.037 A   
ATOM     27  C18 UNL     1      -4.822  -0.203  -0.553  1.00  0.00     0.109 A   
ATOM     28  C17 UNL     1      -4.985  -1.368   0.156  1.00  0.00     0.108 A   
ATOM     29  O2  UNL     1      -6.006   0.348  -0.927  1.00  0.00    -0.316 OA  
ATOM     30  O3  UNL     1      -6.293  -1.698   0.316  1.00  0.00    -0.316 OA  
ATOM     31  C20 UNL     1      -6.939  -0.618  -0.391  1.00  0.00     0.337 C   
ENDBRANCH  22  23
ENDBRANCH  19  22
ENDBRANCH  18  19
BRANCH  18  32
ATOM     32  C21 UNL     1       0.904   2.818   1.395  1.00  0.00     0.037 C   
ATOM     33  C22 UNL     1       0.142   4.049   0.889  1.00  0.00     0.014 C   
ATOM     34  C23 UNL     1       0.515   2.536   2.851  1.00  0.00     0.014 C   
ENDBRANCH  18  32
ENDBRANCH   3  18
TORSDOF 9
