REMARK SMILES CC(C)C[C@H]([NH2+]Cc1ccc2c(c1)OCO2)c1cn(CC(=O)c2cccs2)nn1
REMARK SMILES IDX 17 1 18 2 19 3 28 4 29 5 5 7 4 8 2 9 1 10 3 11 6 12 7 15
REMARK SMILES IDX 8 16 9 17 13 18 10 19 12 20 11 21 14 22 16 23 15 24 20 25
REMARK SMILES IDX 21 26 22 27 23 28 24 29 27 30 25 31 26 32
REMARK H PARENT 18 6 6 13 6 14
ROOT
ATOM     1   C14 UNL     1      -1.384  -0.782  -0.527  1.00  0.00     0.127 A   
ATOM     2   C15 UNL     1      -1.584   0.217   0.398  1.00  0.00     0.046 A   
ATOM     3   N2  UNL     1      -2.802  -0.083   0.941  1.00  0.00    -0.204 N   
ATOM     4   N3  UNL     1      -3.355  -1.147   0.329  1.00  0.00    -0.076 NA  
ATOM     5   N4  UNL     1      -2.491  -1.589  -0.570  1.00  0.00    -0.132 NA  
ATOM     6   H20 UNL     1      -0.967   1.027   0.764  1.00  0.00     0.083 HD  
ENDROOT
BRANCH   1   7
ATOM     7   C5  UNL     1      -0.180  -1.141  -1.333  1.00  0.00     0.114 C   
BRANCH   7   8
ATOM     8   C4  UNL     1      -0.377  -0.761  -2.815  1.00  0.00     0.064 C   
BRANCH   8   9
ATOM     9   C2  UNL     1       0.815  -1.030  -3.757  1.00  0.00    -0.012 C   
ATOM     10  C1  UNL     1       2.097  -0.335  -3.298  1.00  0.00     0.007 C   
ATOM     11  C3  UNL     1       0.461  -0.574  -5.176  1.00  0.00     0.007 C   
ENDBRANCH   8   9
ENDBRANCH   7   8
BRANCH   7  12
ATOM     12  N1  UNL     1       0.086  -2.625  -1.233  1.00  0.00     0.249 N   
ATOM     13  H11 UNL     1       0.834  -2.899  -1.873  1.00  0.00     0.199 HD  
ATOM     14  H12 UNL     1      -0.776  -3.096  -1.541  1.00  0.00     0.199 HD  
BRANCH  12  15
ATOM     15  C6  UNL     1       0.411  -3.149   0.131  1.00  0.00     0.164 C   
BRANCH  15  16
ATOM     16  C7  UNL     1       1.688  -2.584   0.688  1.00  0.00    -0.002 A   
ATOM     17  C8  UNL     1       2.940  -2.969   0.147  1.00  0.00     0.012 A   
ATOM     18  C12 UNL     1       1.645  -1.641   1.729  1.00  0.00     0.045 A   
ATOM     19  C9  UNL     1       4.130  -2.414   0.629  1.00  0.00     0.037 A   
ATOM     20  C11 UNL     1       2.837  -1.112   2.178  1.00  0.00     0.109 A   
ATOM     21  C10 UNL     1       4.044  -1.487   1.643  1.00  0.00     0.108 A   
ATOM     22  O1  UNL     1       2.971  -0.184   3.162  1.00  0.00    -0.316 OA  
ATOM     23  O2  UNL     1       5.091  -0.847   2.226  1.00  0.00    -0.316 OA  
ATOM     24  C13 UNL     1       4.409  -0.048   3.217  1.00  0.00     0.337 C   
ENDBRANCH  15  16
ENDBRANCH  12  15
ENDBRANCH   7  12
ENDBRANCH   1   7
BRANCH   3  25
ATOM     25  C16 UNL     1      -3.460   0.540   2.073  1.00  0.00     0.215 C   
BRANCH  25  26
ATOM     26  C17 UNL     1      -2.868   0.051   3.385  1.00  0.00     0.188 C   
ATOM     27  O3  UNL     1      -1.844  -0.641   3.391  1.00  0.00    -0.292 OA  
BRANCH  26  28
ATOM     28  C18 UNL     1      -3.520   0.449   4.629  1.00  0.00     0.056 A   
ATOM     29  C19 UNL     1      -3.152   0.069   5.908  1.00  0.00     0.020 A   
ATOM     30  S1  UNL     1      -4.875   1.496   4.667  1.00  0.00    -0.094 S   
ATOM     31  C20 UNL     1      -3.990   0.634   6.912  1.00  0.00     0.009 A   
ATOM     32  C21 UNL     1      -4.972   1.433   6.371  1.00  0.00     0.046 A   
ENDBRANCH  26  28
ENDBRANCH  25  26
ENDBRANCH   3  25
TORSDOF 9
