REMARK SMILES CC(C)C[C@H]([NH2+]Cc1ccc2c(c1)OCO2)c1cn([C@@H](CO)c2ccc(F)cn2)nn1
REMARK SMILES IDX 17 1 18 2 19 3 30 4 31 5 5 7 4 8 2 9 1 10 3 11 6 12 7 15
REMARK SMILES IDX 8 16 9 17 13 18 10 19 12 20 11 21 14 22 16 23 15 24 20 25
REMARK SMILES IDX 21 26 22 27 23 29 24 30 29 31 25 32 28 33 26 34 27 35
REMARK H PARENT 18 6 6 13 6 14 22 28
ROOT
ATOM     1   C14 UNL     1      -0.832  -1.112   0.849  1.00  0.00     0.127 A   
ATOM     2   C15 UNL     1      -1.729  -0.566  -0.039  1.00  0.00     0.046 A   
ATOM     3   N2  UNL     1      -2.871  -1.301   0.139  1.00  0.00    -0.201 N   
ATOM     4   N4  UNL     1      -2.684  -2.239   1.093  1.00  0.00    -0.075 NA  
ATOM     5   N5  UNL     1      -1.441  -2.131   1.533  1.00  0.00    -0.132 NA  
ATOM     6   H20 UNL     1      -1.675   0.254  -0.744  1.00  0.00     0.083 HD  
ENDROOT
BRANCH   1   7
ATOM     7   C5  UNL     1       0.572  -0.725   1.187  1.00  0.00     0.114 C   
BRANCH   7   8
ATOM     8   C4  UNL     1       1.606  -1.691   0.581  1.00  0.00     0.064 C   
BRANCH   8   9
ATOM     9   C2  UNL     1       1.621  -1.744  -0.964  1.00  0.00    -0.012 C   
ATOM     10  C1  UNL     1       2.632  -2.794  -1.433  1.00  0.00     0.007 C   
ATOM     11  C3  UNL     1       1.958  -0.389  -1.588  1.00  0.00     0.007 C   
ENDBRANCH   8   9
ENDBRANCH   7   8
BRANCH   7  12
ATOM     12  N1  UNL     1       0.690  -0.744   2.697  1.00  0.00     0.249 N   
ATOM     13  H11 UNL     1       0.502  -1.708   3.004  1.00  0.00     0.199 HD  
ATOM     14  H12 UNL     1      -0.110  -0.207   3.056  1.00  0.00     0.199 HD  
BRANCH  12  15
ATOM     15  C6  UNL     1       1.926  -0.223   3.332  1.00  0.00     0.164 C   
BRANCH  15  16
ATOM     16  C7  UNL     1       2.204   1.216   2.998  1.00  0.00    -0.002 A   
ATOM     17  C8  UNL     1       1.432   2.249   3.583  1.00  0.00     0.012 A   
ATOM     18  C12 UNL     1       3.211   1.544   2.074  1.00  0.00     0.045 A   
ATOM     19  C9  UNL     1       1.657   3.590   3.251  1.00  0.00     0.037 A   
ATOM     20  C11 UNL     1       3.404   2.875   1.767  1.00  0.00     0.109 A   
ATOM     21  C10 UNL     1       2.649   3.869   2.338  1.00  0.00     0.108 A   
ATOM     22  O1  UNL     1       4.323   3.358   0.890  1.00  0.00    -0.316 OA  
ATOM     23  O2  UNL     1       3.001   5.105   1.898  1.00  0.00    -0.316 OA  
ATOM     24  C13 UNL     1       4.084   4.781   1.000  1.00  0.00     0.337 C   
ENDBRANCH  15  16
ENDBRANCH  12  15
ENDBRANCH   7  12
ENDBRANCH   1   7
BRANCH   3  25
ATOM     25  C16 UNL     1      -4.169  -1.166  -0.513  1.00  0.00     0.174 C   
BRANCH  25  26
ATOM     26  C17 UNL     1      -4.901   0.110  -0.060  1.00  0.00     0.187 C   
BRANCH  26  27
ATOM     27  O3  UNL     1      -4.206   1.313  -0.398  1.00  0.00    -0.394 OA  
ATOM     28  H24 UNL     1      -4.142   1.318  -1.379  1.00  0.00     0.210 HD  
ENDBRANCH  26  27
ENDBRANCH  25  26
BRANCH  25  29
ATOM     29  C18 UNL     1      -4.016  -1.280  -2.022  1.00  0.00     0.065 A   
ATOM     30  C19 UNL     1      -3.984  -2.540  -2.628  1.00  0.00     0.029 A   
ATOM     31  N3  UNL     1      -3.877  -0.128  -2.738  1.00  0.00    -0.256 NA  
ATOM     32  C20 UNL     1      -3.824  -2.624  -4.011  1.00  0.00     0.043 A   
ATOM     33  C22 UNL     1      -3.728  -0.245  -4.083  1.00  0.00     0.150 A   
ATOM     34  C21 UNL     1      -3.697  -1.458  -4.746  1.00  0.00     0.141 A   
ATOM     35  F1  UNL     1      -3.540  -1.507  -6.073  1.00  0.00    -0.205 F   
ENDBRANCH  25  29
ENDBRANCH   3  25
TORSDOF 10
