REMARK SMILES CC(C)C[C@H]([NH2+]Cc1ccc2c(c1)OCO2)c1cn([C@H](CO)c2ccc(F)cn2)nn1
REMARK SMILES IDX 17 1 18 2 19 3 30 4 31 5 5 7 4 8 2 9 1 10 3 11 6 12 7 15
REMARK SMILES IDX 8 16 9 17 13 18 10 19 12 20 11 21 14 22 16 23 15 24 20 25
REMARK SMILES IDX 21 26 22 27 23 29 24 30 29 31 25 32 28 33 26 34 27 35
REMARK H PARENT 18 6 6 13 6 14 22 28
ROOT
ATOM     1   C14 UNL     1      -0.806  -0.525   1.227  1.00  0.00     0.127 A   
ATOM     2   C15 UNL     1      -1.251  -1.627   0.534  1.00  0.00     0.046 A   
ATOM     3   N2  UNL     1      -2.556  -1.771   0.924  1.00  0.00    -0.201 N   
ATOM     4   N4  UNL     1      -2.908  -0.773   1.764  1.00  0.00    -0.075 NA  
ATOM     5   N5  UNL     1      -1.844  -0.013   1.963  1.00  0.00    -0.132 NA  
ATOM     6   H20 UNL     1      -0.775  -2.316  -0.151  1.00  0.00     0.083 HD  
ENDROOT
BRANCH   1   7
ATOM     7   C5  UNL     1       0.536   0.128   1.260  1.00  0.00     0.114 C   
BRANCH   7   8
ATOM     8   C4  UNL     1       1.644  -0.748   1.882  1.00  0.00     0.064 C   
BRANCH   8   9
ATOM     9   C2  UNL     1       1.688  -0.905   3.420  1.00  0.00    -0.012 C   
ATOM     10  C1  UNL     1       0.471  -1.622   3.999  1.00  0.00     0.007 C   
ATOM     11  C3  UNL     1       2.957  -1.674   3.810  1.00  0.00     0.007 C   
ENDBRANCH   8   9
ENDBRANCH   7   8
BRANCH   7  12
ATOM     12  N1  UNL     1       0.503   1.459   1.967  1.00  0.00     0.249 N   
ATOM     13  H11 UNL     1      -0.050   1.317   2.823  1.00  0.00     0.199 HD  
ATOM     14  H12 UNL     1       1.448   1.733   2.253  1.00  0.00     0.199 HD  
BRANCH  12  15
ATOM     15  C6  UNL     1      -0.123   2.588   1.217  1.00  0.00     0.164 C   
BRANCH  15  16
ATOM     16  C7  UNL     1       0.719   3.059   0.063  1.00  0.00    -0.002 A   
ATOM     17  C8  UNL     1       0.322   2.786  -1.268  1.00  0.00     0.012 A   
ATOM     18  C12 UNL     1       1.919   3.752   0.298  1.00  0.00     0.045 A   
ATOM     19  C9  UNL     1       1.110   3.190  -2.351  1.00  0.00     0.037 A   
ATOM     20  C11 UNL     1       2.672   4.135  -0.793  1.00  0.00     0.109 A   
ATOM     21  C10 UNL     1       2.281   3.862  -2.079  1.00  0.00     0.108 A   
ATOM     22  O1  UNL     1       3.854   4.805  -0.740  1.00  0.00    -0.316 OA  
ATOM     23  O2  UNL     1       3.165   4.325  -3.000  1.00  0.00    -0.316 OA  
ATOM     24  C13 UNL     1       4.151   4.947  -2.148  1.00  0.00     0.337 C   
ENDBRANCH  15  16
ENDBRANCH  12  15
ENDBRANCH   7  12
ENDBRANCH   1   7
BRANCH   3  25
ATOM     25  C16 UNL     1      -3.525  -2.797   0.557  1.00  0.00     0.174 C   
BRANCH  25  26
ATOM     26  C17 UNL     1      -3.079  -4.203   1.000  1.00  0.00     0.187 C   
BRANCH  26  27
ATOM     27  O3  UNL     1      -1.886  -4.655   0.356  1.00  0.00    -0.394 OA  
ATOM     28  H24 UNL     1      -2.083  -4.658  -0.607  1.00  0.00     0.210 HD  
ENDBRANCH  26  27
ENDBRANCH  25  26
BRANCH  25  29
ATOM     29  C18 UNL     1      -3.854  -2.696  -0.924  1.00  0.00     0.065 A   
ATOM     30  C19 UNL     1      -4.844  -1.810  -1.362  1.00  0.00     0.029 A   
ATOM     31  N3  UNL     1      -3.134  -3.464  -1.791  1.00  0.00    -0.256 NA  
ATOM     32  C20 UNL     1      -5.119  -1.719  -2.726  1.00  0.00     0.043 A   
ATOM     33  C22 UNL     1      -3.432  -3.356  -3.112  1.00  0.00     0.150 A   
ATOM     34  C21 UNL     1      -4.401  -2.506  -3.611  1.00  0.00     0.141 A   
ATOM     35  F1  UNL     1      -4.640  -2.438  -4.925  1.00  0.00    -0.205 F   
ENDBRANCH  25  29
ENDBRANCH   3  25
TORSDOF 10
