REMARK SMILES COc1cccnc1CCn1cc([C@H](CC(C)C)[NH2+]Cc2ccc3c(c2)OCO3)nn1
REMARK SMILES IDX 11 1 12 2 13 3 30 4 31 5 10 7 9 8 8 9 3 10 4 11 5 12 7 13
REMARK SMILES IDX 6 14 2 15 1 16 14 17 15 18 16 19 17 20 18 21 19 22 20 25
REMARK SMILES IDX 21 26 22 27 26 28 23 29 25 30 24 31 27 32 29 33 28 34
REMARK H PARENT 12 6 19 23 19 24
ROOT
ATOM     1   N2  UNL     1       1.651  -2.134   1.128  1.00  0.00    -0.212 N   
ATOM     2   C9  UNL     1       0.961  -1.301   1.963  1.00  0.00     0.045 A   
ATOM     3   C10 UNL     1      -0.233  -1.101   1.308  1.00  0.00     0.127 A   
ATOM     4   N4  UNL     1      -0.255  -1.855   0.163  1.00  0.00    -0.132 NA  
ATOM     5   N5  UNL     1       0.902  -2.488   0.068  1.00  0.00    -0.076 NA  
ATOM     6   H11 UNL     1       1.399  -0.885   2.860  1.00  0.00     0.083 HD  
ENDROOT
BRANCH   1   7
ATOM     7   C8  UNL     1       3.030  -2.562   1.233  1.00  0.00     0.140 C   
BRANCH   7   8
ATOM     8   C7  UNL     1       4.020  -1.408   1.096  1.00  0.00     0.080 C   
BRANCH   8   9
ATOM     9   C6  UNL     1       3.954  -0.719  -0.249  1.00  0.00     0.072 A   
ATOM     10  C2  UNL     1       4.537  -1.304  -1.383  1.00  0.00     0.096 A   
ATOM     11  C3  UNL     1       4.470  -0.600  -2.583  1.00  0.00     0.037 A   
ATOM     12  C4  UNL     1       3.850   0.647  -2.619  1.00  0.00     0.023 A   
ATOM     13  N1  UNL     1       3.308   0.483  -0.274  1.00  0.00    -0.259 NA  
ATOM     14  C5  UNL     1       3.298   1.143  -1.452  1.00  0.00     0.111 A   
BRANCH  10  15
ATOM     15  O1  UNL     1       5.131  -2.524  -1.212  1.00  0.00    -0.347 OA  
ATOM     16  C1  UNL     1       5.757  -3.110  -2.348  1.00  0.00     0.203 C   
ENDBRANCH  10  15
ENDBRANCH   8   9
ENDBRANCH   7   8
ENDBRANCH   1   7
BRANCH   3  17
ATOM     17  C11 UNL     1      -1.339  -0.135   1.559  1.00  0.00     0.114 C   
BRANCH  17  18
ATOM     18  C12 UNL     1      -2.647  -0.818   1.994  1.00  0.00     0.064 C   
BRANCH  18  19
ATOM     19  C13 UNL     1      -2.568  -1.579   3.336  1.00  0.00    -0.012 C   
ATOM     20  C14 UNL     1      -3.905  -2.271   3.615  1.00  0.00     0.007 C   
ATOM     21  C15 UNL     1      -2.207  -0.662   4.505  1.00  0.00     0.007 C   
ENDBRANCH  18  19
ENDBRANCH  17  18
BRANCH  17  22
ATOM     22  N3  UNL     1      -1.623   0.601   0.270  1.00  0.00     0.249 N   
ATOM     23  H22 UNL     1      -2.529   1.078   0.290  1.00  0.00     0.199 HD  
ATOM     24  H23 UNL     1      -1.690  -0.124  -0.462  1.00  0.00     0.199 HD  
BRANCH  22  25
ATOM     25  C16 UNL     1      -0.558   1.556  -0.152  1.00  0.00     0.164 C   
BRANCH  25  26
ATOM     26  C17 UNL     1      -0.751   1.968  -1.583  1.00  0.00    -0.002 A   
ATOM     27  C18 UNL     1      -0.282   1.128  -2.625  1.00  0.00     0.012 A   
ATOM     28  C22 UNL     1      -1.431   3.154  -1.901  1.00  0.00     0.045 A   
ATOM     29  C19 UNL     1      -0.474   1.472  -3.966  1.00  0.00     0.037 A   
ATOM     30  C21 UNL     1      -1.604   3.463  -3.235  1.00  0.00     0.109 A   
ATOM     31  C20 UNL     1      -1.139   2.647  -4.238  1.00  0.00     0.108 A   
ATOM     32  O2  UNL     1      -2.234   4.567  -3.714  1.00  0.00    -0.316 OA  
ATOM     33  O3  UNL     1      -1.416   3.137  -5.474  1.00  0.00    -0.316 OA  
ATOM     34  C23 UNL     1      -2.103   4.362  -5.139  1.00  0.00     0.337 C   
ENDBRANCH  25  26
ENDBRANCH  22  25
ENDBRANCH  17  22
ENDBRANCH   3  17
TORSDOF 10
