REMARK SMILES c1ccc2c(c1)ncn2CCn1cc([C@@H]([NH2+]Cc2ccc3c(c2)OCO3)C2CCCC2)nn1
REMARK SMILES IDX 12 1 13 2 14 3 32 4 33 5 11 7 10 8 9 9 1 10 2 11 6 12 3 13
REMARK SMILES IDX 5 14 4 15 7 16 8 17 15 18 16 19 17 22 18 23 19 24 23 25
REMARK SMILES IDX 20 26 22 27 21 28 24 29 26 30 25 31 27 32 28 33 31 34 29 35
REMARK SMILES IDX 30 36
REMARK H PARENT 13 6 16 20 16 21
ROOT
ATOM     1   N3  UNL     1      -1.520  -2.047   3.084  1.00  0.00    -0.211 N   
ATOM     2   C10 UNL     1      -1.801  -2.384   1.785  1.00  0.00     0.045 A   
ATOM     3   C11 UNL     1      -0.568  -2.711   1.265  1.00  0.00     0.127 A   
ATOM     4   N5  UNL     1       0.355  -2.736   2.279  1.00  0.00    -0.132 NA  
ATOM     5   N6  UNL     1      -0.247  -2.351   3.394  1.00  0.00    -0.076 NA  
ATOM     6   H10 UNL     1      -2.764  -2.190   1.332  1.00  0.00     0.083 HD  
ENDROOT
BRANCH   1   7
ATOM     7   C9  UNL     1      -2.249  -1.086   3.894  1.00  0.00     0.153 C   
BRANCH   7   8
ATOM     8   C8  UNL     1      -1.606   0.312   3.852  1.00  0.00     0.133 C   
BRANCH   8   9
ATOM     9   N2  UNL     1      -1.260   0.734   2.502  1.00  0.00    -0.288 N   
ATOM     10  C1  UNL     1      -3.293   1.731  -0.916  1.00  0.00     0.002 A   
ATOM     11  C2  UNL     1      -4.057   1.736   0.253  1.00  0.00     0.002 A   
ATOM     12  C6  UNL     1      -1.934   1.397  -0.884  1.00  0.00     0.030 A   
ATOM     13  C3  UNL     1      -3.493   1.417   1.493  1.00  0.00     0.026 A   
ATOM     14  C5  UNL     1      -1.350   1.075   0.350  1.00  0.00     0.086 A   
ATOM     15  C4  UNL     1      -2.130   1.099   1.506  1.00  0.00     0.060 A   
ATOM     16  N1  UNL     1      -0.059   0.676   0.629  1.00  0.00    -0.239 NA  
ATOM     17  C7  UNL     1      -0.012   0.610   1.945  1.00  0.00     0.189 A   
ENDBRANCH   8   9
ENDBRANCH   7   8
ENDBRANCH   1   7
BRANCH   3  18
ATOM     18  C12 UNL     1      -0.119  -2.826  -0.162  1.00  0.00     0.117 C   
BRANCH  18  19
ATOM     19  N4  UNL     1       0.920  -1.766  -0.391  1.00  0.00     0.249 N   
ATOM     20  H12 UNL     1       0.509  -0.856  -0.085  1.00  0.00     0.199 HD  
ATOM     21  H13 UNL     1       1.676  -1.894   0.291  1.00  0.00     0.199 HD  
BRANCH  19  22
ATOM     22  C13 UNL     1       1.459  -1.542  -1.747  1.00  0.00     0.164 C   
BRANCH  22  23
ATOM     23  C14 UNL     1       2.376  -0.350  -1.792  1.00  0.00    -0.002 A   
ATOM     24  C15 UNL     1       3.640  -0.391  -1.153  1.00  0.00     0.012 A   
ATOM     25  C19 UNL     1       1.978   0.820  -2.459  1.00  0.00     0.045 A   
ATOM     26  C16 UNL     1       4.493   0.718  -1.172  1.00  0.00     0.037 A   
ATOM     27  C18 UNL     1       2.845   1.893  -2.466  1.00  0.00     0.109 A   
ATOM     28  C17 UNL     1       4.065   1.846  -1.838  1.00  0.00     0.108 A   
ATOM     29  O1  UNL     1       2.618   3.088  -3.074  1.00  0.00    -0.316 OA  
ATOM     30  O2  UNL     1       4.760   3.007  -1.964  1.00  0.00    -0.316 OA  
ATOM     31  C20 UNL     1       3.846   3.786  -2.769  1.00  0.00     0.337 C   
ENDBRANCH  22  23
ENDBRANCH  19  22
ENDBRANCH  18  19
BRANCH  18  32
ATOM     32  C21 UNL     1       0.356  -4.259  -0.480  1.00  0.00     0.043 C   
ATOM     33  C22 UNL     1       1.767  -4.648  -0.022  1.00  0.00     0.010 C   
ATOM     34  C25 UNL     1       0.293  -4.651  -1.968  1.00  0.00     0.010 C   
ATOM     35  C23 UNL     1       2.094  -5.856  -0.885  1.00  0.00     0.001 C   
ATOM     36  C24 UNL     1       1.551  -5.470  -2.251  1.00  0.00     0.001 C   
ENDBRANCH  18  32
ENDBRANCH   3  18
TORSDOF 8
