REMARK SMILES CC(C)(C)[C@H]([NH2+]Cc1ccc2c(c1)OCO2)c1cn(Cc2cccc3cc[nH]c23)nn1
REMARK SMILES IDX 17 1 18 2 19 3 30 4 31 5 5 7 2 8 1 9 3 10 4 11 6 12 7 15
REMARK SMILES IDX 8 16 9 17 13 18 10 19 12 20 11 21 14 22 16 23 15 24 20 25
REMARK SMILES IDX 21 26 22 27 29 28 23 29 25 30 28 31 24 32 26 33 27 34
REMARK H PARENT 18 6 6 13 6 14 28 35
ROOT
ATOM     1   C14 UNL     1      -1.204  -0.910  -0.776  1.00  0.00     0.127 A   
ATOM     2   C15 UNL     1      -2.401  -0.698  -0.129  1.00  0.00     0.046 A   
ATOM     3   N2  UNL     1      -2.327  -1.504   0.975  1.00  0.00    -0.208 N   
ATOM     4   N4  UNL     1      -1.173  -2.205   0.983  1.00  0.00    -0.076 NA  
ATOM     5   N5  UNL     1      -0.474  -1.841  -0.079  1.00  0.00    -0.132 NA  
ATOM     6   H20 UNL     1      -3.232  -0.027  -0.298  1.00  0.00     0.083 HD  
ENDROOT
BRANCH   1   7
ATOM     7   C5  UNL     1      -0.583  -0.209  -1.946  1.00  0.00     0.120 C   
BRANCH   7   8
ATOM     8   C2  UNL     1      -0.682  -0.996  -3.299  1.00  0.00     0.010 C   
ATOM     9   C1  UNL     1      -2.159  -1.327  -3.610  1.00  0.00     0.017 C   
ATOM     10  C3  UNL     1       0.119  -2.313  -3.287  1.00  0.00     0.017 C   
ATOM     11  C4  UNL     1      -0.160  -0.123  -4.464  1.00  0.00     0.017 C   
ENDBRANCH   7   8
BRANCH   7  12
ATOM     12  N1  UNL     1       0.859   0.090  -1.607  1.00  0.00     0.250 N   
ATOM     13  H11 UNL     1       1.420   0.310  -2.434  1.00  0.00     0.199 HD  
ATOM     14  H12 UNL     1       1.256  -0.777  -1.214  1.00  0.00     0.199 HD  
BRANCH  12  15
ATOM     15  C6  UNL     1       1.065   1.164  -0.591  1.00  0.00     0.164 C   
BRANCH  15  16
ATOM     16  C7  UNL     1       2.523   1.285  -0.252  1.00  0.00    -0.002 A   
ATOM     17  C8  UNL     1       3.081   0.482   0.773  1.00  0.00     0.012 A   
ATOM     18  C12 UNL     1       3.353   2.150  -0.985  1.00  0.00     0.045 A   
ATOM     19  C9  UNL     1       4.446   0.545   1.071  1.00  0.00     0.037 A   
ATOM     20  C11 UNL     1       4.695   2.187  -0.665  1.00  0.00     0.109 A   
ATOM     21  C10 UNL     1       5.226   1.407   0.333  1.00  0.00     0.108 A   
ATOM     22  O1  UNL     1       5.630   2.964  -1.271  1.00  0.00    -0.316 OA  
ATOM     23  O2  UNL     1       6.564   1.594   0.480  1.00  0.00    -0.316 OA  
ATOM     24  C13 UNL     1       6.815   2.600  -0.525  1.00  0.00     0.337 C   
ENDBRANCH  15  16
ENDBRANCH  12  15
ENDBRANCH   7  12
ENDBRANCH   1   7
BRANCH   3  25
ATOM     25  C16 UNL     1      -3.201  -1.506   2.139  1.00  0.00     0.171 C   
BRANCH  25  26
ATOM     26  C17 UNL     1      -2.965  -0.263   2.964  1.00  0.00    -0.007 A   
ATOM     27  C18 UNL     1      -4.019   0.640   3.203  1.00  0.00     0.007 A   
ATOM     28  C24 UNL     1      -1.714   0.078   3.528  1.00  0.00     0.042 A   
ATOM     29  C19 UNL     1      -3.832   1.811   3.937  1.00  0.00     0.001 A   
ATOM     30  C21 UNL     1      -1.499   1.250   4.255  1.00  0.00    -0.003 A   
ATOM     31  N3  UNL     1      -0.508  -0.597   3.502  1.00  0.00    -0.320 N   
ATOM     32  C20 UNL     1      -2.577   2.130   4.463  1.00  0.00     0.010 A   
ATOM     33  C22 UNL     1      -0.129   1.268   4.639  1.00  0.00     0.025 A   
ATOM     34  C23 UNL     1       0.457   0.123   4.153  1.00  0.00     0.072 A   
ATOM     35  H28 UNL     1      -0.361  -1.492   3.050  1.00  0.00     0.152 HD  
ENDBRANCH  25  26
ENDBRANCH   3  25
TORSDOF 7
