REMARK SMILES CC(C)C[C@H]([NH2+]Cc1ccc2c(c1)OCO2)c1cn(Cc2cccc(Cl)c2O)nn1
REMARK SMILES IDX 17 1 18 2 19 3 29 4 30 5 5 7 4 8 2 9 1 10 3 11 6 12 7 15
REMARK SMILES IDX 8 16 9 17 13 18 10 19 12 20 11 21 14 22 16 23 15 24 20 25
REMARK SMILES IDX 21 26 22 27 27 28 23 29 25 30 24 31 26 32 28 33
REMARK H PARENT 18 6 6 13 6 14 28 34
ROOT
ATOM     1   C14 UNL     1       0.009   1.683  -0.447  1.00  0.00     0.127 A   
ATOM     2   C15 UNL     1      -0.477   1.707   0.840  1.00  0.00     0.046 A   
ATOM     3   N2  UNL     1      -1.808   1.983   0.684  1.00  0.00    -0.208 N   
ATOM     4   N3  UNL     1      -2.117   2.146  -0.619  1.00  0.00    -0.076 NA  
ATOM     5   N4  UNL     1      -1.012   1.964  -1.322  1.00  0.00    -0.132 NA  
ATOM     6   H20 UNL     1      -0.037   1.525   1.810  1.00  0.00     0.083 HD  
ENDROOT
BRANCH   1   7
ATOM     7   C5  UNL     1       1.357   1.344  -0.994  1.00  0.00     0.114 C   
BRANCH   7   8
ATOM     8   C4  UNL     1       2.217   2.606  -1.185  1.00  0.00     0.064 C   
BRANCH   8   9
ATOM     9   C2  UNL     1       3.674   2.359  -1.632  1.00  0.00    -0.012 C   
ATOM     10  C1  UNL     1       4.464   1.533  -0.615  1.00  0.00     0.007 C   
ATOM     11  C3  UNL     1       4.376   3.701  -1.859  1.00  0.00     0.007 C   
ENDBRANCH   8   9
ENDBRANCH   7   8
BRANCH   7  12
ATOM     12  N1  UNL     1       1.173   0.656  -2.332  1.00  0.00     0.249 N   
ATOM     13  H11 UNL     1       1.752   1.091  -3.055  1.00  0.00     0.199 HD  
ATOM     14  H12 UNL     1       0.201   0.864  -2.616  1.00  0.00     0.199 HD  
BRANCH  12  15
ATOM     15  C6  UNL     1       1.361  -0.819  -2.354  1.00  0.00     0.164 C   
BRANCH  15  16
ATOM     16  C7  UNL     1       0.498  -1.576  -1.382  1.00  0.00    -0.002 A   
ATOM     17  C8  UNL     1      -0.914  -1.548  -1.486  1.00  0.00     0.012 A   
ATOM     18  C12 UNL     1       1.095  -2.323  -0.351  1.00  0.00     0.045 A   
ATOM     19  C9  UNL     1      -1.720  -2.236  -0.571  1.00  0.00     0.037 A   
ATOM     20  C11 UNL     1       0.273  -2.997   0.527  1.00  0.00     0.109 A   
ATOM     21  C10 UNL     1      -1.095  -2.955   0.423  1.00  0.00     0.108 A   
ATOM     22  O1  UNL     1       0.691  -3.763   1.569  1.00  0.00    -0.316 OA  
ATOM     23  O2  UNL     1      -1.711  -3.691   1.384  1.00  0.00    -0.316 OA  
ATOM     24  C13 UNL     1      -0.573  -4.240   2.082  1.00  0.00     0.337 C   
ENDBRANCH  15  16
ENDBRANCH  12  15
ENDBRANCH   7  12
ENDBRANCH   1   7
BRANCH   3  25
ATOM     25  C16 UNL     1      -2.828   2.110   1.710  1.00  0.00     0.172 C   
BRANCH  25  26
ATOM     26  C17 UNL     1      -3.405   0.764   2.065  1.00  0.00     0.003 A   
ATOM     27  C18 UNL     1      -4.501   0.255   1.349  1.00  0.00     0.008 A   
ATOM     28  C22 UNL     1      -2.858  -0.016   3.090  1.00  0.00     0.095 A   
ATOM     29  C19 UNL     1      -5.043  -0.994   1.664  1.00  0.00     0.002 A   
ATOM     30  C21 UNL     1      -3.405  -1.265   3.409  1.00  0.00     0.071 A   
ATOM     31  C20 UNL     1      -4.496  -1.755   2.697  1.00  0.00     0.023 A   
ATOM     32  CL1 UNL     1      -2.732  -2.207   4.687  1.00  0.00    -0.081 Cl  
BRANCH  28  33
ATOM     33  O3  UNL     1      -1.775   0.472   3.774  1.00  0.00    -0.359 OA  
ATOM     34  H26 UNL     1      -1.599  -0.153   4.506  1.00  0.00     0.218 HD  
ENDBRANCH  28  33
ENDBRANCH  25  26
ENDBRANCH   3  25
TORSDOF 9
