REMARK SMILES Cc1ccc([C@H](CO)n2cc([C@@H]([NH2+]Cc3ccc4c(c3)OCO4)C3CCCC3)nn2)c(C)c1
REMARK SMILES IDX 9 1 10 2 11 3 29 4 30 5 6 7 5 8 2 9 3 10 33 11 4 12 31 13
REMARK SMILES IDX 1 14 32 15 7 16 8 17 12 19 13 20 14 23 15 24 16 25 20 26
REMARK SMILES IDX 17 27 19 28 18 29 21 30 23 31 22 32 24 33 25 34 28 35 26 36
REMARK SMILES IDX 27 37
REMARK H PARENT 10 6 8 18 13 21 13 22
ROOT
ATOM     1   N1  UNL     1      -0.474  -0.213  -2.049  1.00  0.00    -0.202 N   
ATOM     2   C8  UNL     1      -0.200  -0.292  -0.710  1.00  0.00     0.046 A   
ATOM     3   C9  UNL     1       0.291   0.952  -0.392  1.00  0.00     0.127 A   
ATOM     4   N3  UNL     1       0.319   1.729  -1.520  1.00  0.00    -0.132 NA  
ATOM     5   N4  UNL     1      -0.148   1.009  -2.526  1.00  0.00    -0.075 NA  
ATOM     6   H10 UNL     1      -0.359  -1.197  -0.139  1.00  0.00     0.083 HD  
ENDROOT
BRANCH   1   7
ATOM     7   C6  UNL     1      -0.980  -1.243  -2.959  1.00  0.00     0.155 C   
BRANCH   7   8
ATOM     8   C5  UNL     1      -2.033  -2.123  -2.280  1.00  0.00    -0.020 A   
ATOM     9   C2  UNL     1      -3.952  -3.759  -0.974  1.00  0.00    -0.051 A   
ATOM     10  C3  UNL     1      -2.641  -4.203  -1.141  1.00  0.00     0.004 A   
ATOM     11  C26 UNL     1      -4.308  -2.503  -1.473  1.00  0.00     0.007 A   
ATOM     12  C4  UNL     1      -1.695  -3.395  -1.778  1.00  0.00     0.006 A   
ATOM     13  C24 UNL     1      -3.368  -1.675  -2.115  1.00  0.00    -0.046 A   
ATOM     14  C1  UNL     1      -4.974  -4.645  -0.326  1.00  0.00     0.044 C   
ATOM     15  C25 UNL     1      -3.837  -0.332  -2.616  1.00  0.00     0.045 C   
ENDBRANCH   7   8
BRANCH   7  16
ATOM     16  C7  UNL     1       0.194  -1.963  -3.660  1.00  0.00     0.185 C   
BRANCH  16  17
ATOM     17  O1  UNL     1       1.163  -2.490  -2.747  1.00  0.00    -0.394 OA  
ATOM     18  H9  UNL     1       1.799  -2.999  -3.284  1.00  0.00     0.210 HD  
ENDBRANCH  16  17
ENDBRANCH   7  16
ENDBRANCH   1   7
BRANCH   3  19
ATOM     19  C10 UNL     1       0.837   1.483   0.891  1.00  0.00     0.117 C   
BRANCH  19  20
ATOM     20  N2  UNL     1       2.100   2.267   0.630  1.00  0.00     0.249 N   
ATOM     21  H12 UNL     1       1.867   2.950  -0.103  1.00  0.00     0.199 HD  
ATOM     22  H13 UNL     1       2.382   2.792   1.460  1.00  0.00     0.199 HD  
BRANCH  20  23
ATOM     23  C11 UNL     1       3.269   1.482   0.128  1.00  0.00     0.164 C   
BRANCH  23  24
ATOM     24  C12 UNL     1       3.770   0.465   1.116  1.00  0.00    -0.002 A   
ATOM     25  C13 UNL     1       3.541  -0.915   0.895  1.00  0.00     0.012 A   
ATOM     26  C17 UNL     1       4.441   0.878   2.281  1.00  0.00     0.045 A   
ATOM     27  C14 UNL     1       3.973  -1.871   1.820  1.00  0.00     0.037 A   
ATOM     28  C16 UNL     1       4.849  -0.091   3.173  1.00  0.00     0.109 A   
ATOM     29  C15 UNL     1       4.624  -1.427   2.949  1.00  0.00     0.108 A   
ATOM     30  O2  UNL     1       5.500   0.137   4.344  1.00  0.00    -0.316 OA  
ATOM     31  O3  UNL     1       5.107  -2.209   3.948  1.00  0.00    -0.316 OA  
ATOM     32  C18 UNL     1       5.673  -1.214   4.830  1.00  0.00     0.337 C   
ENDBRANCH  23  24
ENDBRANCH  20  23
ENDBRANCH  19  20
BRANCH  19  33
ATOM     33  C19 UNL     1      -0.202   2.344   1.639  1.00  0.00     0.043 C   
ATOM     34  C20 UNL     1      -0.522   3.717   1.041  1.00  0.00     0.010 C   
ATOM     35  C23 UNL     1       0.186   2.704   3.076  1.00  0.00     0.010 C   
ATOM     36  C21 UNL     1      -1.292   4.421   2.154  1.00  0.00     0.001 C   
ATOM     37  C22 UNL     1      -0.781   3.821   3.464  1.00  0.00     0.001 C   
ENDBRANCH  19  33
ENDBRANCH   3  19
TORSDOF 9
