REMARK SMILES Cc1ccc([C@@H](CO)n2cc([C@@H]([NH2+]Cc3ccc4c(c3)OCO4)C3CCCC3)nn2)c(C)c1
REMARK SMILES IDX 9 1 10 2 11 3 29 4 30 5 6 7 5 8 2 9 3 10 33 11 4 12 31 13
REMARK SMILES IDX 1 14 32 15 7 16 8 17 12 19 13 20 14 23 15 24 16 25 20 26
REMARK SMILES IDX 17 27 19 28 18 29 21 30 23 31 22 32 24 33 25 34 28 35 26 36
REMARK SMILES IDX 27 37
REMARK H PARENT 10 6 8 18 13 21 13 22
ROOT
ATOM     1   N1  UNL     1      -0.755  -0.783   2.071  1.00  0.00    -0.202 N   
ATOM     2   C8  UNL     1      -0.385   0.408   1.508  1.00  0.00     0.046 A   
ATOM     3   C9  UNL     1      -1.178   0.518   0.391  1.00  0.00     0.127 A   
ATOM     4   N3  UNL     1      -2.013  -0.566   0.325  1.00  0.00    -0.132 NA  
ATOM     5   N4  UNL     1      -1.751  -1.352   1.358  1.00  0.00    -0.075 NA  
ATOM     6   H10 UNL     1       0.409   1.017   1.920  1.00  0.00     0.083 HD  
ENDROOT
BRANCH   1   7
ATOM     7   C6  UNL     1      -0.143  -1.493   3.195  1.00  0.00     0.155 C   
BRANCH   7   8
ATOM     8   C5  UNL     1       1.354  -1.700   2.933  1.00  0.00    -0.020 A   
ATOM     9   C2  UNL     1       4.126  -1.982   2.380  1.00  0.00    -0.051 A   
ATOM     10  C3  UNL     1       3.667  -0.933   3.172  1.00  0.00     0.004 A   
ATOM     11  C26 UNL     1       3.202  -2.903   1.879  1.00  0.00     0.007 A   
ATOM     12  C4  UNL     1       2.303  -0.792   3.440  1.00  0.00     0.006 A   
ATOM     13  C24 UNL     1       1.823  -2.775   2.136  1.00  0.00    -0.046 A   
ATOM     14  C1  UNL     1       5.595  -2.156   2.127  1.00  0.00     0.044 C   
ATOM     15  C25 UNL     1       0.901  -3.811   1.546  1.00  0.00     0.045 C   
ENDBRANCH   7   8
BRANCH   7  16
ATOM     16  C7  UNL     1      -0.551  -0.864   4.546  1.00  0.00     0.185 C   
BRANCH  16  17
ATOM     17  O1  UNL     1      -0.259   0.531   4.639  1.00  0.00    -0.394 OA  
ATOM     18  H9  UNL     1      -0.527   0.818   5.532  1.00  0.00     0.210 HD  
ENDBRANCH  16  17
ENDBRANCH   7  16
ENDBRANCH   1   7
BRANCH   3  19
ATOM     19  C10 UNL     1      -1.145   1.517  -0.714  1.00  0.00     0.117 C   
BRANCH  19  20
ATOM     20  N2  UNL     1      -1.283   0.836  -2.061  1.00  0.00     0.249 N   
ATOM     21  H12 UNL     1      -2.195   0.361  -2.059  1.00  0.00     0.199 HD  
ATOM     22  H13 UNL     1      -1.303   1.544  -2.801  1.00  0.00     0.199 HD  
BRANCH  20  23
ATOM     23  C11 UNL     1      -0.257  -0.200  -2.401  1.00  0.00     0.164 C   
BRANCH  23  24
ATOM     24  C12 UNL     1       1.161   0.295  -2.338  1.00  0.00    -0.002 A   
ATOM     25  C13 UNL     1       2.022  -0.152  -1.305  1.00  0.00     0.012 A   
ATOM     26  C17 UNL     1       1.639   1.220  -3.281  1.00  0.00     0.045 A   
ATOM     27  C14 UNL     1       3.335   0.318  -1.205  1.00  0.00     0.037 A   
ATOM     28  C16 UNL     1       2.941   1.662  -3.154  1.00  0.00     0.109 A   
ATOM     29  C15 UNL     1       3.765   1.225  -2.146  1.00  0.00     0.108 A   
ATOM     30  O2  UNL     1       3.553   2.553  -3.976  1.00  0.00    -0.316 OA  
ATOM     31  O3  UNL     1       5.000   1.786  -2.208  1.00  0.00    -0.316 OA  
ATOM     32  C18 UNL     1       4.875   2.601  -3.392  1.00  0.00     0.337 C   
ENDBRANCH  23  24
ENDBRANCH  20  23
ENDBRANCH  19  20
BRANCH  19  33
ATOM     33  C19 UNL     1      -2.219   2.618  -0.628  1.00  0.00     0.043 C   
ATOM     34  C20 UNL     1      -2.168   3.461   0.648  1.00  0.00     0.010 C   
ATOM     35  C23 UNL     1      -3.680   2.163  -0.653  1.00  0.00     0.010 C   
ATOM     36  C21 UNL     1      -3.472   4.250   0.608  1.00  0.00     0.001 C   
ATOM     37  C22 UNL     1      -4.464   3.381  -0.166  1.00  0.00     0.001 C   
ENDBRANCH  19  33
ENDBRANCH   3  19
TORSDOF 9
