REMARK SMILES CC(C)[C@H]([NH2+]Cc1ccc2c(c1)OCO2)c1cn(C[C@H](O)c2ccc(Cl)cn2)nn1
REMARK SMILES IDX 16 1 17 2 18 3 29 4 30 5 4 7 2 8 1 9 3 10 5 11 6 14 7 15
REMARK SMILES IDX 8 16 12 17 9 18 11 19 10 20 13 21 15 22 14 23 19 24 20 25
REMARK SMILES IDX 21 26 22 28 23 29 28 30 24 31 27 32 25 33 26 34
REMARK H PARENT 17 6 5 12 5 13 21 27
ROOT
ATOM     1   C13 UNL     1       1.252  -1.107   1.636  1.00  0.00     0.127 A   
ATOM     2   C14 UNL     1       0.520  -0.425   2.580  1.00  0.00     0.045 A   
ATOM     3   N2  UNL     1       1.403   0.482   3.093  1.00  0.00    -0.209 N   
ATOM     4   N4  UNL     1       2.620   0.342   2.531  1.00  0.00    -0.076 NA  
ATOM     5   N5  UNL     1       2.539  -0.623   1.631  1.00  0.00    -0.132 NA  
ATOM     6   H18 UNL     1      -0.514  -0.462   2.896  1.00  0.00     0.083 HD  
ENDROOT
BRANCH   1   7
ATOM     7   C4  UNL     1       0.861  -2.146   0.633  1.00  0.00     0.117 C   
BRANCH   7   8
ATOM     8   C2  UNL     1       0.614  -3.562   1.209  1.00  0.00     0.037 C   
ATOM     9   C1  UNL     1      -0.714  -3.633   1.973  1.00  0.00     0.014 C   
ATOM     10  C3  UNL     1       1.746  -4.086   2.100  1.00  0.00     0.014 C   
ENDBRANCH   7   8
BRANCH   7  11
ATOM     11  N1  UNL     1       1.943  -2.224  -0.428  1.00  0.00     0.249 N   
ATOM     12  H9  UNL     1       2.619  -2.954  -0.188  1.00  0.00     0.199 HD  
ATOM     13  H10 UNL     1       2.485  -1.350  -0.336  1.00  0.00     0.199 HD  
BRANCH  11  14
ATOM     14  C5  UNL     1       1.499  -2.359  -1.838  1.00  0.00     0.164 C   
BRANCH  14  15
ATOM     15  C6  UNL     1       0.856  -1.106  -2.365  1.00  0.00    -0.002 A   
ATOM     16  C7  UNL     1       1.632   0.056  -2.591  1.00  0.00     0.012 A   
ATOM     17  C11 UNL     1      -0.529  -1.067  -2.602  1.00  0.00     0.045 A   
ATOM     18  C8  UNL     1       1.037   1.245  -3.030  1.00  0.00     0.037 A   
ATOM     19  C10 UNL     1      -1.084   0.122  -3.030  1.00  0.00     0.109 A   
ATOM     20  C9  UNL     1      -0.325   1.247  -3.233  1.00  0.00     0.108 A   
ATOM     21  O1  UNL     1      -2.401   0.331  -3.288  1.00  0.00    -0.316 OA  
ATOM     22  O2  UNL     1      -1.070   2.310  -3.634  1.00  0.00    -0.316 OA  
ATOM     23  C12 UNL     1      -2.381   1.711  -3.716  1.00  0.00     0.337 C   
ENDBRANCH  14  15
ENDBRANCH  11  14
ENDBRANCH   7  11
ENDBRANCH   1   7
BRANCH   3  24
ATOM     24  C15 UNL     1       1.168   1.508   4.089  1.00  0.00     0.172 C   
BRANCH  24  25
ATOM     25  C16 UNL     1       0.267   2.641   3.595  1.00  0.00     0.182 C   
BRANCH  25  26
ATOM     26  O3  UNL     1      -1.086   2.160   3.501  1.00  0.00    -0.385 OA  
ATOM     27  H22 UNL     1      -1.398   2.447   2.615  1.00  0.00     0.211 HD  
ENDBRANCH  25  26
BRANCH  25  28
ATOM     28  C17 UNL     1       0.697   3.250   2.272  1.00  0.00     0.071 A   
ATOM     29  C18 UNL     1       1.868   3.998   2.167  1.00  0.00     0.028 A   
ATOM     30  N3  UNL     1      -0.130   3.027   1.210  1.00  0.00    -0.257 NA  
ATOM     31  C19 UNL     1       2.211   4.540   0.927  1.00  0.00     0.024 A   
ATOM     32  C21 UNL     1       0.227   3.578   0.023  1.00  0.00     0.131 A   
ATOM     33  C20 UNL     1       1.377   4.329  -0.164  1.00  0.00     0.059 A   
ATOM     34  CL1 UNL     1       1.764   4.979  -1.702  1.00  0.00    -0.083 Cl  
ENDBRANCH  25  28
ENDBRANCH  24  25
ENDBRANCH   3  24
TORSDOF 9
