REMARK SMILES CC(C)[C@H]([NH2+]Cc1ccc2c(c1)OCO2)c1cn(C[C@@H](O)c2ccc(Cl)cn2)nn1
REMARK SMILES IDX 16 1 17 2 18 3 29 4 30 5 4 7 2 8 1 9 3 10 5 11 6 14 7 15
REMARK SMILES IDX 8 16 12 17 9 18 11 19 10 20 13 21 15 22 14 23 19 24 20 25
REMARK SMILES IDX 21 26 22 28 23 29 28 30 24 31 27 32 25 33 26 34
REMARK H PARENT 17 6 5 12 5 13 21 27
ROOT
ATOM     1   C13 UNL     1       0.426   1.873  -0.335  1.00  0.00     0.127 A   
ATOM     2   C14 UNL     1       0.934   3.047  -0.841  1.00  0.00     0.045 A   
ATOM     3   N2  UNL     1       2.215   2.728  -1.193  1.00  0.00    -0.209 N   
ATOM     4   N4  UNL     1       2.446   1.412  -1.020  1.00  0.00    -0.076 NA  
ATOM     5   N5  UNL     1       1.366   0.881  -0.471  1.00  0.00    -0.132 NA  
ATOM     6   H18 UNL     1       0.546   4.053  -0.927  1.00  0.00     0.083 HD  
ENDROOT
BRANCH   1   7
ATOM     7   C4  UNL     1      -0.897   1.565   0.287  1.00  0.00     0.117 C   
BRANCH   7   8
ATOM     8   C2  UNL     1      -0.944   1.984   1.781  1.00  0.00     0.037 C   
ATOM     9   C1  UNL     1      -2.372   1.951   2.337  1.00  0.00     0.014 C   
ATOM     10  C3  UNL     1      -0.017   1.164   2.688  1.00  0.00     0.014 C   
ENDBRANCH   7   8
BRANCH   7  11
ATOM     11  N1  UNL     1      -1.225   0.104   0.143  1.00  0.00     0.249 N   
ATOM     12  H9  UNL     1      -0.376  -0.419   0.402  1.00  0.00     0.199 HD  
ATOM     13  H10 UNL     1      -1.957  -0.190   0.796  1.00  0.00     0.199 HD  
BRANCH  11  14
ATOM     14  C5  UNL     1      -1.607  -0.328  -1.230  1.00  0.00     0.164 C   
BRANCH  14  15
ATOM     15  C6  UNL     1      -1.990  -1.782  -1.237  1.00  0.00    -0.002 A   
ATOM     16  C7  UNL     1      -0.987  -2.783  -1.236  1.00  0.00     0.012 A   
ATOM     17  C11 UNL     1      -3.342  -2.157  -1.202  1.00  0.00     0.045 A   
ATOM     18  C8  UNL     1      -1.326  -4.139  -1.202  1.00  0.00     0.037 A   
ATOM     19  C10 UNL     1      -3.641  -3.503  -1.175  1.00  0.00     0.109 A   
ATOM     20  C9  UNL     1      -2.662  -4.467  -1.174  1.00  0.00     0.108 A   
ATOM     21  O1  UNL     1      -4.891  -4.033  -1.147  1.00  0.00    -0.316 OA  
ATOM     22  O2  UNL     1      -3.174  -5.724  -1.141  1.00  0.00    -0.316 OA  
ATOM     23  C12 UNL     1      -4.590  -5.447  -1.163  1.00  0.00     0.337 C   
ENDBRANCH  14  15
ENDBRANCH  11  14
ENDBRANCH   7  11
ENDBRANCH   1   7
BRANCH   3  24
ATOM     24  C15 UNL     1       3.252   3.599  -1.709  1.00  0.00     0.172 C   
BRANCH  24  25
ATOM     25  C16 UNL     1       3.761   4.616  -0.684  1.00  0.00     0.182 C   
BRANCH  25  26
ATOM     26  O3  UNL     1       2.741   5.602  -0.443  1.00  0.00    -0.385 OA  
ATOM     27  H22 UNL     1       2.649   5.643   0.534  1.00  0.00     0.211 HD  
ENDBRANCH  25  26
BRANCH  25  28
ATOM     28  C17 UNL     1       4.201   3.988   0.627  1.00  0.00     0.071 A   
ATOM     29  C18 UNL     1       5.409   3.300   0.727  1.00  0.00     0.028 A   
ATOM     30  N3  UNL     1       3.349   4.136   1.680  1.00  0.00    -0.257 NA  
ATOM     31  C19 UNL     1       5.756   2.727   1.950  1.00  0.00     0.024 A   
ATOM     32  C21 UNL     1       3.721   3.572   2.857  1.00  0.00     0.131 A   
ATOM     33  C20 UNL     1       4.899   2.863   3.034  1.00  0.00     0.059 A   
ATOM     34  CL1 UNL     1       5.285   2.166   4.552  1.00  0.00    -0.083 Cl  
ENDBRANCH  25  28
ENDBRANCH  24  25
ENDBRANCH   3  24
TORSDOF 9
