REMARK SMILES CC(C)(C)[C@H]([NH2+]Cc1ccc2c(c1)OCO2)c1cn(-c2cccc3cn[nH]c23)nn1
REMARK SMILES IDX 5 1 2 2 1 3 3 4 4 5 6 6 7 9 8 10 9 11 13 12 10 13 12 14
REMARK SMILES IDX 11 15 14 16 16 17 15 18 17 19 18 20 30 21 19 22 29 23 20 24
REMARK SMILES IDX 21 25 28 26 22 27 24 28 27 29 23 30 25 31 26 32
REMARK H PARENT 6 7 6 8 27 33
ROOT
ATOM     1   C5  UNL     1       2.675   0.104  -0.271  1.00  0.00     0.120 C   
ENDROOT
BRANCH   1   2
ATOM     2   C2  UNL     1       3.683   1.296  -0.137  1.00  0.00     0.010 C   
ATOM     3   C1  UNL     1       5.094   0.764   0.204  1.00  0.00     0.017 C   
ATOM     4   C3  UNL     1       3.780   2.148  -1.418  1.00  0.00     0.017 C   
ATOM     5   C4  UNL     1       3.258   2.219   1.029  1.00  0.00     0.017 C   
ENDBRANCH   1   2
BRANCH   1   6
ATOM     6   N1  UNL     1       3.056  -0.794  -1.438  1.00  0.00     0.250 N   
ATOM     7   H11 UNL     1       2.495  -0.469  -2.241  1.00  0.00     0.199 HD  
ATOM     8   H12 UNL     1       4.031  -0.655  -1.714  1.00  0.00     0.199 HD  
BRANCH   6   9
ATOM     9   C6  UNL     1       2.817  -2.261  -1.264  1.00  0.00     0.164 C   
BRANCH   9  10
ATOM     10  C7  UNL     1       1.378  -2.627  -1.028  1.00  0.00    -0.002 A   
ATOM     11  C8  UNL     1       0.954  -3.081   0.245  1.00  0.00     0.012 A   
ATOM     12  C12 UNL     1       0.428  -2.473  -2.054  1.00  0.00     0.045 A   
ATOM     13  C9  UNL     1      -0.397  -3.345   0.502  1.00  0.00     0.037 A   
ATOM     14  C11 UNL     1      -0.895  -2.730  -1.764  1.00  0.00     0.109 A   
ATOM     15  C10 UNL     1      -1.298  -3.150  -0.520  1.00  0.00     0.108 A   
ATOM     16  O1  UNL     1      -1.936  -2.585  -2.625  1.00  0.00    -0.316 OA  
ATOM     17  O2  UNL     1      -2.642  -3.326  -0.442  1.00  0.00    -0.316 OA  
ATOM     18  C13 UNL     1      -3.045  -2.988  -1.789  1.00  0.00     0.337 C   
ENDBRANCH   9  10
ENDBRANCH   6   9
ENDBRANCH   1   6
BRANCH   1  19
ATOM     19  C14 UNL     1       1.245   0.523  -0.449  1.00  0.00     0.128 A   
ATOM     20  C15 UNL     1       0.187   0.542   0.434  1.00  0.00     0.135 A   
ATOM     21  N6  UNL     1       0.789   0.828  -1.702  1.00  0.00    -0.131 NA  
ATOM     22  N2  UNL     1      -0.922   0.798  -0.347  1.00  0.00    -0.179 N   
ATOM     23  N5  UNL     1      -0.519   1.002  -1.630  1.00  0.00    -0.071 NA  
BRANCH  22  24
ATOM     24  C16 UNL     1      -2.288   0.804   0.013  1.00  0.00     0.081 A   
ATOM     25  C17 UNL     1      -2.700   0.636   1.347  1.00  0.00     0.028 A   
ATOM     26  C22 UNL     1      -3.302   0.950  -0.952  1.00  0.00     0.080 A   
ATOM     27  C18 UNL     1      -4.057   0.623   1.685  1.00  0.00     0.003 A   
ATOM     28  C20 UNL     1      -4.656   0.930  -0.633  1.00  0.00     0.019 A   
ATOM     29  N4  UNL     1      -3.264   1.115  -2.316  1.00  0.00    -0.236 N   
ATOM     30  C19 UNL     1      -5.046   0.769   0.706  1.00  0.00     0.012 A   
ATOM     31  C21 UNL     1      -5.319   1.086  -1.871  1.00  0.00     0.141 A   
ATOM     32  N3  UNL     1      -4.472   1.181  -2.898  1.00  0.00    -0.192 NA  
ATOM     33  H25 UNL     1      -2.436   1.180  -2.901  1.00  0.00     0.176 HD  
ENDBRANCH  22  24
ENDBRANCH   1  19
TORSDOF 6
