REMARK SMILES Fc1cncc(Cn2cc([C@@H]([NH2+]Cc3ccc4c(c3)OCO4)C3CCCCC3)nn2)c1
REMARK SMILES IDX 8 1 9 2 10 3 29 4 30 5 7 7 6 8 2 9 3 10 31 11 4 12 5 13 1 14
REMARK SMILES IDX 11 15 12 16 13 19 14 20 15 21 19 22 16 23 18 24 17 25 20 26
REMARK SMILES IDX 22 27 21 28 23 29 24 30 28 31 25 32 27 33 26 34
REMARK H PARENT 9 6 12 17 12 18
ROOT
ATOM     1   N2  UNL     1       0.903   1.661   1.337  1.00  0.00    -0.208 N   
ATOM     2   C6  UNL     1       0.073   0.828   0.640  1.00  0.00     0.046 A   
ATOM     3   C7  UNL     1      -0.436  -0.014   1.605  1.00  0.00     0.127 A   
ATOM     4   N4  UNL     1       0.092   0.327   2.824  1.00  0.00    -0.132 NA  
ATOM     5   N5  UNL     1       0.905   1.354   2.648  1.00  0.00    -0.076 NA  
ATOM     6   H5  UNL     1      -0.049   0.890  -0.433  1.00  0.00     0.083 HD  
ENDROOT
BRANCH   1   7
ATOM     7   C5  UNL     1       1.741   2.733   0.827  1.00  0.00     0.171 C   
BRANCH   7   8
ATOM     8   C4  UNL     1       3.058   2.198   0.344  1.00  0.00    -0.007 A   
ATOM     9   C1  UNL     1       4.578   1.571  -1.412  1.00  0.00     0.141 A   
ATOM     10  C2  UNL     1       5.475   1.162  -0.442  1.00  0.00     0.150 A   
ATOM     11  C23 UNL     1       3.353   2.093  -1.020  1.00  0.00     0.048 A   
ATOM     12  N1  UNL     1       5.223   1.243   0.886  1.00  0.00    -0.261 NA  
ATOM     13  C3  UNL     1       4.029   1.764   1.248  1.00  0.00     0.116 A   
ATOM     14  F1  UNL     1       4.870   1.451  -2.712  1.00  0.00    -0.205 F   
ENDBRANCH   7   8
ENDBRANCH   1   7
BRANCH   3  15
ATOM     15  C8  UNL     1      -1.322  -1.216   1.510  1.00  0.00     0.117 C   
BRANCH  15  16
ATOM     16  N3  UNL     1      -0.704  -2.299   2.383  1.00  0.00     0.249 N   
ATOM     17  H7  UNL     1      -1.385  -2.674   3.049  1.00  0.00     0.199 HD  
ATOM     18  H8  UNL     1      -0.010  -1.818   2.979  1.00  0.00     0.199 HD  
BRANCH  16  19
ATOM     19  C9  UNL     1      -0.019  -3.412   1.673  1.00  0.00     0.164 C   
BRANCH  19  20
ATOM     20  C10 UNL     1       1.124  -2.966   0.804  1.00  0.00    -0.002 A   
ATOM     21  C11 UNL     1       2.315  -2.465   1.383  1.00  0.00     0.012 A   
ATOM     22  C15 UNL     1       1.008  -3.020  -0.596  1.00  0.00     0.045 A   
ATOM     23  C12 UNL     1       3.375  -2.026   0.582  1.00  0.00     0.037 A   
ATOM     24  C14 UNL     1       2.070  -2.577  -1.356  1.00  0.00     0.109 A   
ATOM     25  C13 UNL     1       3.222  -2.098  -0.785  1.00  0.00     0.108 A   
ATOM     26  O1  UNL     1       2.114  -2.553  -2.714  1.00  0.00    -0.316 OA  
ATOM     27  O2  UNL     1       4.143  -1.725  -1.711  1.00  0.00    -0.316 OA  
ATOM     28  C16 UNL     1       3.449  -2.042  -2.936  1.00  0.00     0.337 C   
ENDBRANCH  19  20
ENDBRANCH  16  19
ENDBRANCH  15  16
BRANCH  15  29
ATOM     29  C17 UNL     1      -2.779  -0.949   1.988  1.00  0.00     0.043 C   
ATOM     30  C18 UNL     1      -3.697  -2.186   1.844  1.00  0.00     0.010 C   
ATOM     31  C22 UNL     1      -3.448   0.232   1.249  1.00  0.00     0.010 C   
ATOM     32  C19 UNL     1      -4.022  -2.524   0.389  1.00  0.00     0.001 C   
ATOM     33  C21 UNL     1      -3.752  -0.081  -0.215  1.00  0.00     0.001 C   
ATOM     34  C20 UNL     1      -4.617  -1.330  -0.351  1.00  0.00     0.000 C   
ENDBRANCH  15  29
ENDBRANCH   3  15
TORSDOF 7
