REMARK SMILES CC(C)[C@H]([NH2+]Cc1ccc2c(c1)OCO2)c1cn(CCc2cccc(O)c2)nn1
REMARK SMILES IDX 16 1 17 2 18 3 28 4 29 5 4 7 2 8 1 9 3 10 5 11 6 14 7 15
REMARK SMILES IDX 8 16 12 17 9 18 11 19 10 20 13 21 15 22 14 23 19 24 20 25
REMARK SMILES IDX 21 26 22 27 27 28 23 29 25 30 24 31 26 32
REMARK H PARENT 17 6 5 12 5 13 26 33
ROOT
ATOM     1   C13 UNL     1      -1.048   1.011  -0.038  1.00  0.00     0.127 A   
ATOM     2   C14 UNL     1      -1.042   2.331  -0.433  1.00  0.00     0.045 A   
ATOM     3   N2  UNL     1      -1.958   2.381  -1.449  1.00  0.00    -0.212 N   
ATOM     4   N3  UNL     1      -2.587   1.203  -1.585  1.00  0.00    -0.076 NA  
ATOM     5   N4  UNL     1      -2.050   0.361  -0.718  1.00  0.00    -0.132 NA  
ATOM     6   H18 UNL     1      -0.425   3.185  -0.195  1.00  0.00     0.083 HD  
ENDROOT
BRANCH   1   7
ATOM     7   C4  UNL     1      -0.140   0.203   0.837  1.00  0.00     0.117 C   
BRANCH   7   8
ATOM     8   C2  UNL     1       0.629   0.954   1.957  1.00  0.00     0.037 C   
ATOM     9   C1  UNL     1      -0.311   1.707   2.904  1.00  0.00     0.014 C   
ATOM     10  C3  UNL     1       1.761   1.874   1.486  1.00  0.00     0.014 C   
ENDBRANCH   7   8
BRANCH   7  11
ATOM     11  N1  UNL     1       0.871  -0.567   0.007  1.00  0.00     0.249 N   
ATOM     12  H9  UNL     1       1.615  -0.921   0.612  1.00  0.00     0.199 HD  
ATOM     13  H10 UNL     1       1.321   0.078  -0.663  1.00  0.00     0.199 HD  
BRANCH  11  14
ATOM     14  C5  UNL     1       0.355  -1.711  -0.803  1.00  0.00     0.164 C   
BRANCH  14  15
ATOM     15  C6  UNL     1      -0.164  -2.847   0.033  1.00  0.00    -0.002 A   
ATOM     16  C7  UNL     1       0.726  -3.657   0.778  1.00  0.00     0.012 A   
ATOM     17  C11 UNL     1      -1.545  -3.103   0.093  1.00  0.00     0.045 A   
ATOM     18  C8  UNL     1       0.250  -4.705   1.574  1.00  0.00     0.037 A   
ATOM     19  C10 UNL     1      -1.981  -4.146   0.882  1.00  0.00     0.109 A   
ATOM     20  C9  UNL     1      -1.109  -4.924   1.603  1.00  0.00     0.108 A   
ATOM     21  O1  UNL     1      -3.274  -4.528   1.048  1.00  0.00    -0.316 OA  
ATOM     22  O2  UNL     1      -1.743  -5.894   2.313  1.00  0.00    -0.316 OA  
ATOM     23  C12 UNL     1      -3.115  -5.667   1.923  1.00  0.00     0.337 C   
ENDBRANCH  14  15
ENDBRANCH  11  14
ENDBRANCH   7  11
ENDBRANCH   1   7
BRANCH   3  24
ATOM     24  C15 UNL     1      -2.084   3.409  -2.464  1.00  0.00     0.139 C   
BRANCH  24  25
ATOM     25  C16 UNL     1      -1.259   3.095  -3.721  1.00  0.00     0.057 C   
BRANCH  25  26
ATOM     26  C17 UNL     1       0.221   2.962  -3.429  1.00  0.00    -0.044 A   
ATOM     27  C18 UNL     1       1.053   4.087  -3.406  1.00  0.00     0.004 A   
ATOM     28  C22 UNL     1       0.759   1.712  -3.084  1.00  0.00     0.037 A   
ATOM     29  C19 UNL     1       2.394   3.966  -3.031  1.00  0.00     0.003 A   
ATOM     30  C21 UNL     1       2.082   1.612  -2.672  1.00  0.00     0.071 A   
ATOM     31  C20 UNL     1       2.910   2.727  -2.652  1.00  0.00     0.033 A   
BRANCH  30  32
ATOM     32  O3  UNL     1       2.535   0.397  -2.235  1.00  0.00    -0.361 OA  
ATOM     33  H26 UNL     1       3.471   0.351  -2.525  1.00  0.00     0.218 HD  
ENDBRANCH  30  32
ENDBRANCH  25  26
ENDBRANCH  24  25
ENDBRANCH   3  24
TORSDOF 9
