REMARK SMILES Fc1ccc(Cn2cc([C@@H]([NH2+]Cc3ccc4c(c3)OCO4)C3CCCCC3)nn2)c(F)c1
REMARK SMILES IDX 7 1 8 2 9 3 28 4 29 5 6 7 5 8 2 9 3 10 32 11 4 12 30 13 1 14
REMARK SMILES IDX 31 15 10 16 11 17 12 20 13 21 14 22 18 23 15 24 17 25 16 26
REMARK SMILES IDX 19 27 21 28 20 29 22 30 23 31 27 32 24 33 26 34 25 35
REMARK H PARENT 8 6 11 18 11 19
ROOT
ATOM     1   N1  UNL     1      -2.903  -0.632  -0.139  1.00  0.00    -0.208 N   
ATOM     2   C6  UNL     1      -2.083  -0.011  -1.042  1.00  0.00     0.046 A   
ATOM     3   C7  UNL     1      -1.121   0.591  -0.260  1.00  0.00     0.127 A   
ATOM     4   N3  UNL     1      -1.409   0.358   1.062  1.00  0.00    -0.132 NA  
ATOM     5   N4  UNL     1      -2.510  -0.373   1.124  1.00  0.00    -0.076 NA  
ATOM     6   H5  UNL     1      -2.236  -0.090  -2.110  1.00  0.00     0.083 HD  
ENDROOT
BRANCH   1   7
ATOM     7   C5  UNL     1      -4.057  -1.477  -0.399  1.00  0.00     0.172 C   
BRANCH   7   8
ATOM     8   C4  UNL     1      -3.646  -2.918  -0.536  1.00  0.00     0.007 A   
ATOM     9   C1  UNL     1      -2.822  -5.570  -0.826  1.00  0.00     0.126 A   
ATOM     10  C2  UNL     1      -3.294  -5.126   0.406  1.00  0.00     0.040 A   
ATOM     11  C24 UNL     1      -2.750  -4.714  -1.917  1.00  0.00     0.078 A   
ATOM     12  C3  UNL     1      -3.704  -3.799   0.555  1.00  0.00     0.011 A   
ATOM     13  C23 UNL     1      -3.160  -3.396  -1.760  1.00  0.00     0.130 A   
ATOM     14  F1  UNL     1      -2.422  -6.841  -0.959  1.00  0.00    -0.207 F   
ATOM     15  F2  UNL     1      -3.074  -2.560  -2.805  1.00  0.00    -0.207 F   
ENDBRANCH   7   8
ENDBRANCH   1   7
BRANCH   3  16
ATOM     16  C8  UNL     1       0.099   1.382  -0.621  1.00  0.00     0.117 C   
BRANCH  16  17
ATOM     17  N2  UNL     1       0.648   2.075   0.598  1.00  0.00     0.249 N   
ATOM     18  H7  UNL     1       0.531   1.418   1.384  1.00  0.00     0.199 HD  
ATOM     19  H8  UNL     1       1.652   2.261   0.525  1.00  0.00     0.199 HD  
BRANCH  17  20
ATOM     20  C9  UNL     1      -0.051   3.333   0.984  1.00  0.00     0.164 C   
BRANCH  20  21
ATOM     21  C10 UNL     1       0.532   3.877   2.258  1.00  0.00    -0.002 A   
ATOM     22  C11 UNL     1       0.003   3.476   3.509  1.00  0.00     0.012 A   
ATOM     23  C15 UNL     1       1.652   4.724   2.217  1.00  0.00     0.045 A   
ATOM     24  C12 UNL     1       0.576   3.922   4.704  1.00  0.00     0.037 A   
ATOM     25  C14 UNL     1       2.197   5.138   3.414  1.00  0.00     0.109 A   
ATOM     26  C13 UNL     1       1.674   4.749   4.623  1.00  0.00     0.108 A   
ATOM     27  O1  UNL     1       3.293   5.931   3.554  1.00  0.00    -0.316 OA  
ATOM     28  O2  UNL     1       2.367   5.257   5.675  1.00  0.00    -0.316 OA  
ATOM     29  C16 UNL     1       3.396   6.007   4.994  1.00  0.00     0.337 C   
ENDBRANCH  20  21
ENDBRANCH  17  20
ENDBRANCH  16  17
BRANCH  16  30
ATOM     30  C17 UNL     1       1.196   0.496  -1.273  1.00  0.00     0.043 C   
ATOM     31  C18 UNL     1       2.301   1.346  -1.933  1.00  0.00     0.010 C   
ATOM     32  C22 UNL     1       1.814  -0.537  -0.309  1.00  0.00     0.010 C   
ATOM     33  C19 UNL     1       3.351   0.473  -2.619  1.00  0.00     0.001 C   
ATOM     34  C21 UNL     1       2.863  -1.401  -1.008  1.00  0.00     0.001 C   
ATOM     35  C20 UNL     1       3.948  -0.550  -1.657  1.00  0.00     0.000 C   
ENDBRANCH  16  30
ENDBRANCH   3  16
TORSDOF 7
