REMARK SMILES c1cc2c(cc1C[NH2+][C@H](c1cn(Cc3cnc(C4CCC4)o3)nn1)C1CCCCC1)OCO2
REMARK SMILES IDX 10 1 11 2 12 3 23 4 24 5 9 7 8 8 7 11 6 12 1 13 2 14 3 15
REMARK SMILES IDX 5 16 4 17 33 18 31 19 32 20 25 21 26 22 30 23 27 24 29 25
REMARK SMILES IDX 28 26 13 27 14 28 15 29 22 30 16 31 17 32 18 33 19 34 21 35
REMARK SMILES IDX 20 36
REMARK H PARENT 11 6 8 9 8 10
ROOT
ATOM     1   C9  UNL     1      -0.062   1.937   0.171  1.00  0.00     0.127 A   
ATOM     2   C10 UNL     1       0.066   0.783  -0.570  1.00  0.00     0.046 A   
ATOM     3   N2  UNL     1       1.251   0.943  -1.239  1.00  0.00    -0.206 N   
ATOM     4   N4  UNL     1       1.809   2.135  -0.936  1.00  0.00    -0.076 NA  
ATOM     5   N5  UNL     1       1.021   2.747  -0.068  1.00  0.00    -0.132 NA  
ATOM     6   H9  UNL     1      -0.548  -0.101  -0.678  1.00  0.00     0.083 HD  
ENDROOT
BRANCH   1   7
ATOM     7   C8  UNL     1      -1.085   2.356   1.176  1.00  0.00     0.117 C   
BRANCH   7   8
ATOM     8   N1  UNL     1      -0.402   3.069   2.327  1.00  0.00     0.249 N   
ATOM     9   H6  UNL     1       0.442   3.511   1.931  1.00  0.00     0.199 HD  
ATOM     10  H7  UNL     1      -0.991   3.831   2.671  1.00  0.00     0.199 HD  
BRANCH   8  11
ATOM     11  C7  UNL     1      -0.007   2.221   3.489  1.00  0.00     0.164 C   
BRANCH  11  12
ATOM     12  C6  UNL     1       0.959   1.117   3.171  1.00  0.00    -0.002 A   
ATOM     13  C1  UNL     1       2.290   1.410   2.781  1.00  0.00     0.012 A   
ATOM     14  C2  UNL     1       3.192   0.388   2.467  1.00  0.00     0.037 A   
ATOM     15  C3  UNL     1       2.754  -0.913   2.571  1.00  0.00     0.108 A   
ATOM     16  C5  UNL     1       0.552  -0.226   3.263  1.00  0.00     0.045 A   
ATOM     17  C4  UNL     1       1.472  -1.210   2.961  1.00  0.00     0.109 A   
ATOM     18  O3  UNL     1       3.488  -2.025   2.313  1.00  0.00    -0.316 OA  
ATOM     19  O2  UNL     1       1.242  -2.547   3.012  1.00  0.00    -0.316 OA  
ATOM     20  C25 UNL     1       2.543  -3.064   2.650  1.00  0.00     0.337 C   
ENDBRANCH  11  12
ENDBRANCH   8  11
ENDBRANCH   7   8
BRANCH   7  21
ATOM     21  C19 UNL     1      -2.194   3.284   0.607  1.00  0.00     0.043 C   
ATOM     22  C20 UNL     1      -1.670   4.602   0.000  1.00  0.00     0.010 C   
ATOM     23  C24 UNL     1      -3.081   2.542  -0.414  1.00  0.00     0.010 C   
ATOM     24  C21 UNL     1      -2.812   5.477  -0.518  1.00  0.00     0.001 C   
ATOM     25  C23 UNL     1      -4.210   3.426  -0.938  1.00  0.00     0.001 C   
ATOM     26  C22 UNL     1      -3.677   4.729  -1.525  1.00  0.00     0.000 C   
ENDBRANCH   7  21
ENDBRANCH   1   7
BRANCH   3  27
ATOM     27  C11 UNL     1       1.897   0.066  -2.206  1.00  0.00     0.197 C   
BRANCH  27  28
ATOM     28  C12 UNL     1       1.663  -1.357  -1.891  1.00  0.00     0.099 A   
ATOM     29  C13 UNL     1       2.266  -2.280  -1.071  1.00  0.00     0.145 A   
ATOM     30  O1  UNL     1       0.606  -1.974  -2.507  1.00  0.00    -0.296 OA  
ATOM     31  N3  UNL     1       1.585  -3.468  -1.128  1.00  0.00    -0.234 NA  
ATOM     32  C14 UNL     1       0.623  -3.255  -2.009  1.00  0.00     0.150 A   
BRANCH  32  33
ATOM     33  C15 UNL     1      -0.416  -4.334  -2.440  1.00  0.00     0.063 C   
ATOM     34  C16 UNL     1       0.186  -5.674  -2.929  1.00  0.00     0.012 C   
ATOM     35  C18 UNL     1      -1.055  -5.140  -1.282  1.00  0.00     0.012 C   
ATOM     36  C17 UNL     1      -0.983  -6.376  -2.206  1.00  0.00     0.002 C   
ENDBRANCH  32  33
ENDBRANCH  27  28
ENDBRANCH   3  27
TORSDOF 8
