REMARK SMILES c1cc2c(cc1C[NH2+][C@H](c1cn(CCc3cn4c(n3)CCCC4)nn1)C1CCCC1)OCO2
REMARK SMILES IDX 10 1 11 2 12 3 24 4 25 5 9 7 8 8 7 11 6 12 1 13 2 14 3 15
REMARK SMILES IDX 5 16 4 17 33 18 31 19 32 20 26 21 27 22 30 23 28 24 29 25
REMARK SMILES IDX 13 26 14 27 15 28 16 29 19 30 17 31 18 32 23 33 20 34 22 35
REMARK SMILES IDX 21 36
REMARK H PARENT 11 6 8 9 8 10
ROOT
ATOM     1   C9  UNL     1       0.378   2.044   1.831  1.00  0.00     0.127 A   
ATOM     2   C10 UNL     1       1.331   1.062   1.965  1.00  0.00     0.045 A   
ATOM     3   N2  UNL     1       1.338   0.793   3.304  1.00  0.00    -0.212 N   
ATOM     4   N5  UNL     1       0.473   1.591   3.962  1.00  0.00    -0.076 NA  
ATOM     5   N6  UNL     1      -0.129   2.356   3.066  1.00  0.00    -0.132 NA  
ATOM     6   H9  UNL     1       1.939   0.506   1.264  1.00  0.00     0.083 HD  
ENDROOT
BRANCH   1   7
ATOM     7   C8  UNL     1      -0.211   2.674   0.616  1.00  0.00     0.117 C   
BRANCH   7   8
ATOM     8   N1  UNL     1      -1.712   2.763   0.774  1.00  0.00     0.249 N   
ATOM     9   H6  UNL     1      -1.871   3.165   1.709  1.00  0.00     0.199 HD  
ATOM     10  H7  UNL     1      -2.117   3.406   0.091  1.00  0.00     0.199 HD  
BRANCH   8  11
ATOM     11  C7  UNL     1      -2.448   1.464   0.739  1.00  0.00     0.164 C   
BRANCH  11  12
ATOM     12  C6  UNL     1      -2.470   0.843  -0.630  1.00  0.00    -0.002 A   
ATOM     13  C1  UNL     1      -3.310   1.371  -1.642  1.00  0.00     0.012 A   
ATOM     14  C2  UNL     1      -3.313   0.824  -2.929  1.00  0.00     0.037 A   
ATOM     15  C3  UNL     1      -2.475  -0.240  -3.178  1.00  0.00     0.108 A   
ATOM     16  C5  UNL     1      -1.632  -0.247  -0.924  1.00  0.00     0.045 A   
ATOM     17  C4  UNL     1      -1.659  -0.761  -2.204  1.00  0.00     0.109 A   
ATOM     18  O2  UNL     1      -2.347  -0.889  -4.364  1.00  0.00    -0.316 OA  
ATOM     19  O1  UNL     1      -0.913  -1.802  -2.656  1.00  0.00    -0.316 OA  
ATOM     20  C25 UNL     1      -1.364  -1.891  -4.027  1.00  0.00     0.337 C   
ENDBRANCH  11  12
ENDBRANCH   8  11
ENDBRANCH   7   8
BRANCH   7  21
ATOM     21  C20 UNL     1       0.387   4.068   0.338  1.00  0.00     0.043 C   
ATOM     22  C21 UNL     1       0.001   4.657  -1.034  1.00  0.00     0.010 C   
ATOM     23  C24 UNL     1       0.048   5.173   1.348  1.00  0.00     0.010 C   
ATOM     24  C22 UNL     1      -0.291   6.139  -0.797  1.00  0.00     0.001 C   
ATOM     25  C23 UNL     1       0.308   6.450   0.565  1.00  0.00     0.001 C   
ENDBRANCH   7  21
ENDBRANCH   1   7
BRANCH   3  26
ATOM     26  C11 UNL     1       2.113  -0.199   4.017  1.00  0.00     0.140 C   
BRANCH  26  27
ATOM     27  C12 UNL     1       1.270  -1.380   4.487  1.00  0.00     0.079 C   
BRANCH  27  28
ATOM     28  C13 UNL     1       0.805  -2.284   3.395  1.00  0.00     0.058 A   
ATOM     29  C14 UNL     1      -0.019  -3.385   3.505  1.00  0.00     0.100 A   
ATOM     30  N4  UNL     1       1.202  -2.115   2.084  1.00  0.00    -0.241 NA  
ATOM     31  N3  UNL     1      -0.080  -3.910   2.249  1.00  0.00    -0.294 N   
ATOM     32  C15 UNL     1       0.676  -3.123   1.418  1.00  0.00     0.100 A   
ATOM     33  C19 UNL     1      -0.837  -5.071   1.827  1.00  0.00     0.112 C   
ATOM     34  C16 UNL     1       0.876  -3.465  -0.019  1.00  0.00     0.073 C   
ATOM     35  C18 UNL     1      -0.398  -5.590   0.458  1.00  0.00     0.020 C   
ATOM     36  C17 UNL     1      -0.195  -4.434  -0.524  1.00  0.00     0.009 C   
ENDBRANCH  27  28
ENDBRANCH  26  27
ENDBRANCH   3  26
TORSDOF 8
