REMARK SMILES CC(C)C[C@H]([NH2+]Cc1ccc2c(c1)OCO2)c1cn(-c2ccc3c(c2)CNCC3)nn1
REMARK SMILES IDX 5 1 4 2 2 3 1 4 3 5 6 6 7 9 8 10 9 11 13 12 10 13 12 14
REMARK SMILES IDX 11 15 14 16 16 17 15 18 17 19 18 20 31 21 19 22 30 23 20 24
REMARK SMILES IDX 21 25 25 26 22 27 24 28 23 29 26 30 29 31 27 32 28 33
REMARK H PARENT 6 7 6 8 27 34
ROOT
ATOM     1   C5  UNL     1       3.129   0.511  -1.756  1.00  0.00     0.114 C   
ENDROOT
BRANCH   1   2
ATOM     2   C4  UNL     1       4.160   1.647  -1.899  1.00  0.00     0.064 C   
BRANCH   2   3
ATOM     3   C2  UNL     1       4.562   2.337  -0.577  1.00  0.00    -0.012 C   
ATOM     4   C1  UNL     1       5.532   3.485  -0.869  1.00  0.00     0.007 C   
ATOM     5   C3  UNL     1       5.199   1.365   0.418  1.00  0.00     0.007 C   
ENDBRANCH   2   3
ENDBRANCH   1   2
BRANCH   1   6
ATOM     6   N1  UNL     1       2.913  -0.077  -3.141  1.00  0.00     0.249 N   
ATOM     7   H11 UNL     1       3.741   0.077  -3.725  1.00  0.00     0.199 HD  
ATOM     8   H12 UNL     1       2.155   0.476  -3.571  1.00  0.00     0.199 HD  
BRANCH   6   9
ATOM     9   C6  UNL     1       2.542  -1.523  -3.206  1.00  0.00     0.164 C   
BRANCH   9  10
ATOM     10  C7  UNL     1       1.218  -1.845  -2.572  1.00  0.00    -0.002 A   
ATOM     11  C8  UNL     1       0.011  -1.465  -3.208  1.00  0.00     0.012 A   
ATOM     12  C12 UNL     1       1.167  -2.469  -1.313  1.00  0.00     0.045 A   
ATOM     13  C9  UNL     1      -1.226  -1.681  -2.592  1.00  0.00     0.037 A   
ATOM     14  C11 UNL     1      -0.069  -2.655  -0.729  1.00  0.00     0.109 A   
ATOM     15  C10 UNL     1      -1.232  -2.271  -1.349  1.00  0.00     0.108 A   
ATOM     16  O1  UNL     1      -0.289  -3.195   0.499  1.00  0.00    -0.316 OA  
ATOM     17  O2  UNL     1      -2.332  -2.532  -0.596  1.00  0.00    -0.316 OA  
ATOM     18  C13 UNL     1      -1.734  -3.142   0.566  1.00  0.00     0.337 C   
ENDBRANCH   9  10
ENDBRANCH   6   9
ENDBRANCH   1   6
BRANCH   1  19
ATOM     19  C14 UNL     1       1.823   0.990  -1.215  1.00  0.00     0.127 A   
ATOM     20  C15 UNL     1       1.212   0.783   0.001  1.00  0.00     0.135 A   
ATOM     21  N5  UNL     1       0.976   1.681  -2.032  1.00  0.00    -0.131 NA  
ATOM     22  N2  UNL     1      -0.054   1.317  -0.141  1.00  0.00    -0.181 N   
ATOM     23  N4  UNL     1      -0.152   1.883  -1.373  1.00  0.00    -0.071 NA  
BRANCH  22  24
ATOM     24  C16 UNL     1      -1.142   1.286   0.766  1.00  0.00     0.058 A   
ATOM     25  C17 UNL     1      -1.019   0.679   2.022  1.00  0.00     0.026 A   
ATOM     26  C21 UNL     1      -2.368   1.859   0.392  1.00  0.00     0.031 A   
ATOM     27  C18 UNL     1      -2.113   0.641   2.890  1.00  0.00     0.006 A   
ATOM     28  C20 UNL     1      -3.467   1.830   1.264  1.00  0.00    -0.029 A   
ATOM     29  C19 UNL     1      -3.340   1.200   2.514  1.00  0.00    -0.042 A   
ATOM     30  C22 UNL     1      -4.791   2.415   0.821  1.00  0.00     0.117 C   
ATOM     31  C24 UNL     1      -4.505   1.182   3.475  1.00  0.00     0.051 C   
ATOM     32  N3  UNL     1      -5.701   2.713   1.931  1.00  0.00    -0.312 NA  
ATOM     33  C23 UNL     1      -5.833   1.536   2.794  1.00  0.00     0.086 C   
ATOM     34  H26 UNL     1      -5.304   3.480   2.474  1.00  0.00     0.123 HD  
ENDBRANCH  22  24
ENDBRANCH   1  19
TORSDOF 7
