REMARK SMILES Fc1ncc(Cl)cc1Cn1cc([C@@H]([NH2+]Cc2ccc3c(c2)OCO3)C2CCCCC2)nn1
REMARK SMILES IDX 10 1 11 2 12 3 31 4 32 5 9 7 8 8 2 9 3 10 4 11 7 12 5 13
REMARK SMILES IDX 1 14 6 15 13 16 14 17 15 20 16 21 17 22 21 23 18 24 20 25
REMARK SMILES IDX 19 26 22 27 24 28 23 29 25 30 26 31 30 32 27 33 29 34 28 35
REMARK H PARENT 11 6 14 18 14 19
ROOT
ATOM     1   N2  UNL     1       2.037   2.489   0.070  1.00  0.00    -0.208 N   
ATOM     2   C7  UNL     1       0.789   1.982  -0.164  1.00  0.00     0.046 A   
ATOM     3   C8  UNL     1       0.995   0.624  -0.272  1.00  0.00     0.127 A   
ATOM     4   N4  UNL     1       2.340   0.368  -0.177  1.00  0.00    -0.132 NA  
ATOM     5   N5  UNL     1       2.966   1.516   0.023  1.00  0.00    -0.076 NA  
ATOM     6   H5  UNL     1      -0.096   2.604  -0.190  1.00  0.00     0.083 HD  
ENDROOT
BRANCH   1   7
ATOM     7   C6  UNL     1       2.415   3.864   0.351  1.00  0.00     0.174 C   
BRANCH   7   8
ATOM     8   C5  UNL     1       2.430   4.120   1.828  1.00  0.00     0.028 A   
ATOM     9   C1  UNL     1       1.242   4.357   2.511  1.00  0.00     0.217 A   
ATOM     10  N1  UNL     1       1.156   4.560   3.841  1.00  0.00    -0.226 NA  
ATOM     11  C2  UNL     1       2.320   4.535   4.533  1.00  0.00     0.134 A   
ATOM     12  C4  UNL     1       3.614   4.089   2.577  1.00  0.00     0.032 A   
ATOM     13  C3  UNL     1       3.558   4.304   3.951  1.00  0.00     0.059 A   
ATOM     14  F1  UNL     1       0.094   4.367   1.817  1.00  0.00    -0.185 F   
ATOM     15  CL1 UNL     1       4.987   4.273   4.898  1.00  0.00    -0.083 Cl  
ENDBRANCH   7   8
ENDBRANCH   1   7
BRANCH   3  16
ATOM     16  C9  UNL     1       0.042  -0.511  -0.506  1.00  0.00     0.117 C   
BRANCH  16  17
ATOM     17  N3  UNL     1       0.797  -1.595  -1.247  1.00  0.00     0.249 N   
ATOM     18  H7  UNL     1       1.575  -1.899  -0.646  1.00  0.00     0.199 HD  
ATOM     19  H8  UNL     1       1.272  -1.128  -2.030  1.00  0.00     0.199 HD  
BRANCH  17  20
ATOM     20  C10 UNL     1       0.056  -2.764  -1.780  1.00  0.00     0.164 C   
BRANCH  20  21
ATOM     21  C11 UNL     1      -0.999  -2.388  -2.782  1.00  0.00    -0.002 A   
ATOM     22  C12 UNL     1      -0.632  -1.957  -4.081  1.00  0.00     0.012 A   
ATOM     23  C16 UNL     1      -2.358  -2.427  -2.426  1.00  0.00     0.045 A   
ATOM     24  C13 UNL     1      -1.603  -1.565  -5.009  1.00  0.00     0.037 A   
ATOM     25  C15 UNL     1      -3.289  -2.033  -3.365  1.00  0.00     0.109 A   
ATOM     26  C14 UNL     1      -2.923  -1.612  -4.620  1.00  0.00     0.108 A   
ATOM     27  O1  UNL     1      -4.635  -2.004  -3.179  1.00  0.00    -0.316 OA  
ATOM     28  O2  UNL     1      -3.992  -1.267  -5.383  1.00  0.00    -0.316 OA  
ATOM     29  C17 UNL     1      -5.081  -1.546  -4.477  1.00  0.00     0.337 C   
ENDBRANCH  20  21
ENDBRANCH  17  20
ENDBRANCH  16  17
BRANCH  16  30
ATOM     30  C18 UNL     1      -0.602  -1.070   0.791  1.00  0.00     0.043 C   
ATOM     31  C19 UNL     1      -1.526  -0.030   1.458  1.00  0.00     0.010 C   
ATOM     32  C23 UNL     1       0.408  -1.617   1.818  1.00  0.00     0.010 C   
ATOM     33  C20 UNL     1      -2.227  -0.605   2.688  1.00  0.00     0.001 C   
ATOM     34  C22 UNL     1      -0.292  -2.178   3.056  1.00  0.00     0.001 C   
ATOM     35  C21 UNL     1      -1.223  -1.153   3.696  1.00  0.00     0.000 C   
ENDBRANCH  16  30
ENDBRANCH   3  16
TORSDOF 7
