REMARK SMILES Cc1ccccc1-n1cc([C@H](CC(C)C)[NH2+]Cc2ccc3c(c2)OCO3)nn1
REMARK SMILES IDX 11 1 10 2 8 3 9 4 28 5 27 6 7 7 2 8 3 9 4 10 6 11 5 12 1 13
REMARK SMILES IDX 12 14 13 15 14 16 15 17 16 18 17 21 18 22 19 23 23 24 20 25
REMARK SMILES IDX 22 26 21 27 24 28 26 29 25 30
REMARK H PARENT 16 19 16 20
ROOT
ATOM     1   C10 UNL     1       0.315  -0.185   2.009  1.00  0.00     0.114 C   
ENDROOT
BRANCH   1   2
ATOM     2   C9  UNL     1      -0.732   0.006   0.962  1.00  0.00     0.127 A   
ATOM     3   N1  UNL     1      -2.547   0.217  -0.266  1.00  0.00    -0.180 N   
ATOM     4   C8  UNL     1      -2.106  -0.013   1.031  1.00  0.00     0.135 A   
ATOM     5   N4  UNL     1      -1.452   0.345  -1.058  1.00  0.00    -0.071 NA  
ATOM     6   N3  UNL     1      -0.357   0.230  -0.329  1.00  0.00    -0.131 NA  
BRANCH   3   7
ATOM     7   C7  UNL     1      -3.888   0.306  -0.751  1.00  0.00     0.060 A   
ATOM     8   C2  UNL     1      -4.196   0.522  -2.118  1.00  0.00    -0.028 A   
ATOM     9   C3  UNL     1      -5.551   0.594  -2.502  1.00  0.00     0.005 A   
ATOM     10  C4  UNL     1      -6.582   0.458  -1.574  1.00  0.00     0.000 A   
ATOM     11  C6  UNL     1      -4.947   0.172   0.174  1.00  0.00     0.026 A   
ATOM     12  C5  UNL     1      -6.280   0.248  -0.237  1.00  0.00     0.002 A   
ATOM     13  C1  UNL     1      -3.178   0.686  -3.218  1.00  0.00     0.046 C   
ENDBRANCH   3   7
ENDBRANCH   1   2
BRANCH   1  14
ATOM     14  C11 UNL     1       0.410   0.989   3.003  1.00  0.00     0.064 C   
BRANCH  14  15
ATOM     15  C12 UNL     1       0.554   2.423   2.441  1.00  0.00    -0.012 C   
ATOM     16  C13 UNL     1       1.884   2.680   1.732  1.00  0.00     0.007 C   
ATOM     17  C14 UNL     1       0.400   3.428   3.590  1.00  0.00     0.007 C   
ENDBRANCH  14  15
ENDBRANCH   1  14
BRANCH   1  18
ATOM     18  N2  UNL     1       1.657  -0.450   1.391  1.00  0.00     0.249 N   
ATOM     19  H19 UNL     1       2.428  -0.167   2.006  1.00  0.00     0.199 HD  
ATOM     20  H20 UNL     1       1.722   0.141   0.549  1.00  0.00     0.199 HD  
BRANCH  18  21
ATOM     21  C15 UNL     1       1.885  -1.851   0.938  1.00  0.00     0.164 C   
BRANCH  21  22
ATOM     22  C16 UNL     1       3.182  -1.951   0.187  1.00  0.00    -0.002 A   
ATOM     23  C17 UNL     1       3.227  -1.643  -1.195  1.00  0.00     0.012 A   
ATOM     24  C21 UNL     1       4.367  -2.292   0.860  1.00  0.00     0.045 A   
ATOM     25  C18 UNL     1       4.434  -1.683  -1.901  1.00  0.00     0.037 A   
ATOM     26  C20 UNL     1       5.540  -2.322   0.134  1.00  0.00     0.109 A   
ATOM     27  C19 UNL     1       5.573  -2.027  -1.207  1.00  0.00     0.108 A   
ATOM     28  O1  UNL     1       6.767  -2.629   0.630  1.00  0.00    -0.316 OA  
ATOM     29  O2  UNL     1       6.826  -2.112  -1.725  1.00  0.00    -0.316 OA  
ATOM     30  C22 UNL     1       7.578  -2.525  -0.564  1.00  0.00     0.337 C   
ENDBRANCH  21  22
ENDBRANCH  18  21
ENDBRANCH   1  18
TORSDOF 7
