REMARK SMILES COc1ccc(CCn2cc([C@H](CC(C)C)[NH2+]Cc3ccc4c(c3)OCO4)nn2)c(F)c1
REMARK SMILES IDX 9 1 10 2 11 3 28 4 29 5 8 7 7 8 6 9 3 10 4 11 32 12 5 13
REMARK SMILES IDX 30 14 31 15 2 16 1 17 12 18 13 19 14 20 15 21 16 22 17 23
REMARK SMILES IDX 18 26 19 27 20 28 24 29 21 30 23 31 22 32 25 33 27 34 26 35
REMARK H PARENT 10 6 17 24 17 25
ROOT
ATOM     1   N1  UNL     1      -3.116   0.672  -1.705  1.00  0.00    -0.212 N   
ATOM     2   C8  UNL     1      -2.283   0.016  -0.845  1.00  0.00     0.045 A   
ATOM     3   C9  UNL     1      -2.148   0.890   0.211  1.00  0.00     0.127 A   
ATOM     4   N3  UNL     1      -2.922   1.998  -0.018  1.00  0.00    -0.132 NA  
ATOM     5   N4  UNL     1      -3.504   1.855  -1.196  1.00  0.00    -0.076 NA  
ATOM     6   H10 UNL     1      -1.853  -0.950  -1.072  1.00  0.00     0.083 HD  
ENDROOT
BRANCH   1   7
ATOM     7   C7  UNL     1      -3.564   0.255  -3.017  1.00  0.00     0.139 C   
BRANCH   7   8
ATOM     8   C6  UNL     1      -2.684   0.795  -4.145  1.00  0.00     0.060 C   
BRANCH   8   9
ATOM     9   C5  UNL     1      -1.359   0.081  -4.255  1.00  0.00    -0.010 A   
ATOM     10  C2  UNL     1       1.109  -1.269  -4.433  1.00  0.00     0.077 A   
ATOM     11  C3  UNL     1      -0.024  -1.787  -5.062  1.00  0.00     0.034 A   
ATOM     12  C24 UNL     1       1.006  -0.078  -3.716  1.00  0.00     0.073 A   
ATOM     13  C4  UNL     1      -1.251  -1.116  -4.974  1.00  0.00     0.009 A   
ATOM     14  C23 UNL     1      -0.215   0.582  -3.629  1.00  0.00     0.129 A   
ATOM     15  F1  UNL     1      -0.288   1.706  -2.899  1.00  0.00    -0.207 F   
BRANCH  10  16
ATOM     16  O1  UNL     1       2.356  -1.827  -4.432  1.00  0.00    -0.349 OA  
ATOM     17  C1  UNL     1       2.553  -2.969  -5.258  1.00  0.00     0.203 C   
ENDBRANCH  10  16
ENDBRANCH   8   9
ENDBRANCH   7   8
ENDBRANCH   1   7
BRANCH   3  18
ATOM     18  C10 UNL     1      -1.305   0.823   1.443  1.00  0.00     0.114 C   
BRANCH  18  19
ATOM     19  C11 UNL     1      -2.067   0.127   2.589  1.00  0.00     0.064 C   
BRANCH  19  20
ATOM     20  C12 UNL     1      -1.271  -0.116   3.889  1.00  0.00    -0.012 C   
ATOM     21  C13 UNL     1      -0.010  -0.949   3.659  1.00  0.00     0.007 C   
ATOM     22  C14 UNL     1      -2.168  -0.815   4.915  1.00  0.00     0.007 C   
ENDBRANCH  19  20
ENDBRANCH  18  19
BRANCH  18  23
ATOM     23  N2  UNL     1      -0.922   2.217   1.881  1.00  0.00     0.249 N   
ATOM     24  H21 UNL     1      -0.579   2.222   2.844  1.00  0.00     0.199 HD  
ATOM     25  H22 UNL     1      -1.790   2.770   1.862  1.00  0.00     0.199 HD  
BRANCH  23  26
ATOM     26  C15 UNL     1       0.070   2.925   1.015  1.00  0.00     0.164 C   
BRANCH  26  27
ATOM     27  C16 UNL     1       1.444   2.322   1.101  1.00  0.00    -0.002 A   
ATOM     28  C17 UNL     1       1.968   1.592   0.008  1.00  0.00     0.012 A   
ATOM     29  C21 UNL     1       2.205   2.449   2.276  1.00  0.00     0.045 A   
ATOM     30  C18 UNL     1       3.227   0.987   0.083  1.00  0.00     0.037 A   
ATOM     31  C20 UNL     1       3.443   1.840   2.317  1.00  0.00     0.109 A   
ATOM     32  C19 UNL     1       3.939   1.128   1.253  1.00  0.00     0.108 A   
ATOM     33  O2  UNL     1       4.298   1.862   3.372  1.00  0.00    -0.316 OA  
ATOM     34  O3  UNL     1       5.169   0.611   1.504  1.00  0.00    -0.316 OA  
ATOM     35  C22 UNL     1       5.407   1.101   2.841  1.00  0.00     0.337 C   
ENDBRANCH  26  27
ENDBRANCH  23  26
ENDBRANCH  18  23
ENDBRANCH   3  18
TORSDOF 10
