REMARK SMILES CC(C)[C@H]([NH2+]Cc1ccc2c(c1)OCO2)c1cn(CCc2ccc(O)cc2)nn1
REMARK SMILES IDX 16 1 17 2 18 3 28 4 29 5 4 7 2 8 1 9 3 10 5 11 6 14 7 15
REMARK SMILES IDX 8 16 12 17 9 18 11 19 10 20 13 21 15 22 14 23 19 24 20 25
REMARK SMILES IDX 21 26 22 27 27 28 23 29 26 30 24 31 25 32
REMARK H PARENT 17 6 5 12 5 13 25 33
ROOT
ATOM     1   C13 UNL     1       1.960  -1.639   1.013  1.00  0.00     0.127 A   
ATOM     2   C14 UNL     1       2.719  -2.222   0.022  1.00  0.00     0.045 A   
ATOM     3   N2  UNL     1       1.949  -3.266  -0.408  1.00  0.00    -0.212 N   
ATOM     4   N3  UNL     1       0.817  -3.360   0.311  1.00  0.00    -0.076 NA  
ATOM     5   N4  UNL     1       0.807  -2.362   1.180  1.00  0.00    -0.132 NA  
ATOM     6   H18 UNL     1       3.655  -1.956  -0.449  1.00  0.00     0.083 HD  
ENDROOT
BRANCH   1   7
ATOM     7   C4  UNL     1       2.158  -0.363   1.761  1.00  0.00     0.117 C   
BRANCH   7   8
ATOM     8   C2  UNL     1       2.704  -0.539   3.201  1.00  0.00     0.037 C   
ATOM     9   C1  UNL     1       4.101  -1.170   3.196  1.00  0.00     0.014 C   
ATOM     10  C3  UNL     1       1.786  -1.329   4.140  1.00  0.00     0.014 C   
ENDBRANCH   7   8
BRANCH   7  11
ATOM     11  N1  UNL     1       0.866   0.412   1.820  1.00  0.00     0.249 N   
ATOM     12  H9  UNL     1       0.930   1.191   2.482  1.00  0.00     0.199 HD  
ATOM     13  H10 UNL     1       0.144  -0.227   2.180  1.00  0.00     0.199 HD  
BRANCH  11  14
ATOM     14  C5  UNL     1       0.375   0.922   0.506  1.00  0.00     0.164 C   
BRANCH  14  15
ATOM     15  C6  UNL     1      -0.842   1.783   0.696  1.00  0.00    -0.002 A   
ATOM     16  C7  UNL     1      -0.722   3.192   0.740  1.00  0.00     0.012 A   
ATOM     17  C11 UNL     1      -2.103   1.189   0.879  1.00  0.00     0.045 A   
ATOM     18  C8  UNL     1      -1.841   4.003   0.955  1.00  0.00     0.037 A   
ATOM     19  C10 UNL     1      -3.186   2.017   1.088  1.00  0.00     0.109 A   
ATOM     20  C9  UNL     1      -3.060   3.384   1.125  1.00  0.00     0.108 A   
ATOM     21  O1  UNL     1      -4.467   1.609   1.284  1.00  0.00    -0.316 OA  
ATOM     22  O2  UNL     1      -4.245   4.008   1.344  1.00  0.00    -0.316 OA  
ATOM     23  C12 UNL     1      -5.144   2.880   1.406  1.00  0.00     0.337 C   
ENDBRANCH  14  15
ENDBRANCH  11  14
ENDBRANCH   7  11
ENDBRANCH   1   7
BRANCH   3  24
ATOM     24  C15 UNL     1       2.166  -4.101  -1.572  1.00  0.00     0.139 C   
BRANCH  24  25
ATOM     25  C16 UNL     1       1.251  -3.743  -2.749  1.00  0.00     0.057 C   
BRANCH  25  26
ATOM     26  C17 UNL     1       1.279  -2.272  -3.104  1.00  0.00    -0.046 A   
ATOM     27  C18 UNL     1       0.160  -1.468  -2.836  1.00  0.00     0.006 A   
ATOM     28  C22 UNL     1       2.427  -1.681  -3.654  1.00  0.00     0.006 A   
ATOM     29  C19 UNL     1       0.202  -0.096  -3.078  1.00  0.00     0.033 A   
ATOM     30  C21 UNL     1       2.468  -0.305  -3.893  1.00  0.00     0.033 A   
ATOM     31  C20 UNL     1       1.359   0.476  -3.589  1.00  0.00     0.071 A   
BRANCH  31  32
ATOM     32  O3  UNL     1       1.369   1.827  -3.768  1.00  0.00    -0.361 OA  
ATOM     33  H25 UNL     1       2.084   2.055  -4.389  1.00  0.00     0.218 HD  
ENDBRANCH  31  32
ENDBRANCH  25  26
ENDBRANCH  24  25
ENDBRANCH   3  24
TORSDOF 9
