REMARK SMILES CC(C)[C@H]([NH2+]Cc1ccc2c(c1)OCO2)c1cn(-c2ccc(F)c(N([O-])[O-])c2)nn1
REMARK SMILES IDX 16 1 17 2 18 3 29 4 30 5 4 6 2 7 1 8 3 9 5 10 6 13 7 14 8 15
REMARK SMILES IDX 12 16 9 17 11 18 10 19 13 20 15 21 14 22 19 23 20 24 28 25
REMARK SMILES IDX 21 26 24 27 22 28 23 29 25 30 26 31 27 32
REMARK H PARENT 5 11 5 12
ROOT
ATOM     1   C13 UNL     1      -1.332  -0.002   0.186  1.00  0.00     0.127 A   
ATOM     2   C14 UNL     1      -2.516   0.682   0.013  1.00  0.00     0.135 A   
ATOM     3   N2  UNL     1      -2.143   1.987  -0.246  1.00  0.00    -0.181 N   
ATOM     4   N4  UNL     1      -0.788   2.059  -0.255  1.00  0.00    -0.071 NA  
ATOM     5   N5  UNL     1      -0.290   0.866   0.017  1.00  0.00    -0.131 NA  
ENDROOT
BRANCH   1   6
ATOM     6   C4  UNL     1      -1.056  -1.443   0.494  1.00  0.00     0.117 C   
BRANCH   6   7
ATOM     7   C2  UNL     1      -1.308  -1.777   1.989  1.00  0.00     0.037 C   
ATOM     8   C1  UNL     1      -1.344  -3.291   2.234  1.00  0.00     0.014 C   
ATOM     9   C3  UNL     1      -0.307  -1.121   2.948  1.00  0.00     0.014 C   
ENDBRANCH   6   7
BRANCH   6  10
ATOM     10  N1  UNL     1       0.353  -1.808   0.110  1.00  0.00     0.249 N   
ATOM     11  H9  UNL     1       0.684  -2.643   0.602  1.00  0.00     0.199 HD  
ATOM     12  H10 UNL     1       0.962  -1.035   0.421  1.00  0.00     0.199 HD  
BRANCH  10  13
ATOM     13  C5  UNL     1       0.591  -1.992  -1.349  1.00  0.00     0.164 C   
BRANCH  13  14
ATOM     14  C6  UNL     1       2.048  -2.246  -1.612  1.00  0.00    -0.002 A   
ATOM     15  C7  UNL     1       2.937  -1.158  -1.789  1.00  0.00     0.012 A   
ATOM     16  C11 UNL     1       2.547  -3.559  -1.626  1.00  0.00     0.045 A   
ATOM     17  C8  UNL     1       4.305  -1.374  -1.990  1.00  0.00     0.037 A   
ATOM     18  C10 UNL     1       3.901  -3.736  -1.825  1.00  0.00     0.109 A   
ATOM     19  C9  UNL     1       4.755  -2.676  -2.002  1.00  0.00     0.108 A   
ATOM     20  O1  UNL     1       4.543  -4.933  -1.865  1.00  0.00    -0.316 OA  
ATOM     21  O2  UNL     1       6.042  -3.071  -2.179  1.00  0.00    -0.316 OA  
ATOM     22  C12 UNL     1       5.902  -4.507  -2.115  1.00  0.00     0.337 C   
ENDBRANCH  13  14
ENDBRANCH  10  13
ENDBRANCH   6  10
ENDBRANCH   1   6
BRANCH   3  23
ATOM     23  C15 UNL     1      -2.958   3.124  -0.482  1.00  0.00     0.060 A   
ATOM     24  C16 UNL     1      -2.356   4.374  -0.716  1.00  0.00     0.029 A   
ATOM     25  C20 UNL     1      -4.357   3.024  -0.482  1.00  0.00     0.060 A   
ATOM     26  C17 UNL     1      -3.142   5.511  -0.939  1.00  0.00     0.043 A   
ATOM     27  C19 UNL     1      -5.127   4.178  -0.716  1.00  0.00     0.155 A   
ATOM     28  C18 UNL     1      -4.529   5.412  -0.937  1.00  0.00     0.151 A   
ATOM     29  F1  UNL     1      -5.250   6.525  -1.121  1.00  0.00    -0.205 F   
BRANCH  27  30
ATOM     30  N3  UNL     1      -6.574   4.069  -0.715  1.00  0.00     0.095 N   
ATOM     31  O3  UNL     1      -7.206   4.716  -1.557  1.00  0.00    -0.138 OA  
ATOM     32  O4  UNL     1      -7.069   3.281   0.104  1.00  0.00    -0.138 OA  
ENDBRANCH  27  30
ENDBRANCH   3  23
TORSDOF 7
