REMARK SMILES Cc1cccc([C@@H](CO)n2cc([C@@H]([NH2+]Cc3ccc4c(c3)OCO4)C3CCCC3)nn2)n1
REMARK SMILES IDX 10 1 11 2 12 3 30 4 31 5 7 7 6 8 2 9 3 10 32 11 4 12 5 13
REMARK SMILES IDX 1 14 8 15 9 16 13 18 14 19 15 22 16 23 17 24 21 25 18 26
REMARK SMILES IDX 20 27 19 28 22 29 24 30 23 31 25 32 26 33 29 34 27 35 28 36
REMARK H PARENT 11 6 9 17 14 20 14 21
ROOT
ATOM     1   N1  UNL     1      -1.351   0.342   2.544  1.00  0.00    -0.201 N   
ATOM     2   C9  UNL     1      -0.581  -0.392   1.680  1.00  0.00     0.046 A   
ATOM     3   C10 UNL     1       0.563   0.354   1.527  1.00  0.00     0.127 A   
ATOM     4   N3  UNL     1       0.440   1.517   2.246  1.00  0.00    -0.132 NA  
ATOM     5   N4  UNL     1      -0.737   1.506   2.850  1.00  0.00    -0.075 NA  
ATOM     6   H11 UNL     1      -0.895  -1.360   1.311  1.00  0.00     0.083 HD  
ENDROOT
BRANCH   1   7
ATOM     7   C7  UNL     1      -2.631   0.004   3.156  1.00  0.00     0.174 C   
BRANCH   7   8
ATOM     8   C6  UNL     1      -3.664  -0.315   2.089  1.00  0.00     0.066 A   
ATOM     9   C2  UNL     1      -4.706  -1.914   0.743  1.00  0.00     0.038 A   
ATOM     10  C3  UNL     1      -5.503  -0.945   0.145  1.00  0.00     0.023 A   
ATOM     11  N5  UNL     1      -3.787  -1.614   1.696  1.00  0.00    -0.256 NA  
ATOM     12  C4  UNL     1      -5.358   0.381   0.541  1.00  0.00     0.004 A   
ATOM     13  C5  UNL     1      -4.429   0.706   1.524  1.00  0.00     0.026 A   
ATOM     14  C1  UNL     1      -4.840  -3.354   0.342  1.00  0.00     0.067 C   
ENDBRANCH   7   8
BRANCH   7  15
ATOM     15  C8  UNL     1      -2.477  -1.111   4.210  1.00  0.00     0.187 C   
BRANCH  15  16
ATOM     16  O1  UNL     1      -2.020  -2.352   3.664  1.00  0.00    -0.394 OA  
ATOM     17  H10 UNL     1      -2.686  -2.604   2.984  1.00  0.00     0.210 HD  
ENDBRANCH  15  16
ENDBRANCH   7  15
ENDBRANCH   1   7
BRANCH   3  18
ATOM     18  C11 UNL     1       1.819   0.082   0.760  1.00  0.00     0.117 C   
BRANCH  18  19
ATOM     19  N2  UNL     1       2.653   1.339   0.682  1.00  0.00     0.249 N   
ATOM     20  H13 UNL     1       3.651   1.128   0.626  1.00  0.00     0.199 HD  
ATOM     21  H14 UNL     1       2.505   1.828   1.579  1.00  0.00     0.199 HD  
BRANCH  19  22
ATOM     22  C12 UNL     1       2.287   2.291  -0.406  1.00  0.00     0.164 C   
BRANCH  22  23
ATOM     23  C13 UNL     1       2.739   1.812  -1.759  1.00  0.00    -0.002 A   
ATOM     24  C14 UNL     1       1.790   1.406  -2.729  1.00  0.00     0.012 A   
ATOM     25  C18 UNL     1       4.111   1.740  -2.063  1.00  0.00     0.045 A   
ATOM     26  C15 UNL     1       2.198   0.925  -3.979  1.00  0.00     0.037 A   
ATOM     27  C17 UNL     1       4.479   1.255  -3.301  1.00  0.00     0.109 A   
ATOM     28  C16 UNL     1       3.551   0.858  -4.232  1.00  0.00     0.108 A   
ATOM     29  O2  UNL     1       5.756   1.110  -3.743  1.00  0.00    -0.316 OA  
ATOM     30  O3  UNL     1       4.126   0.415  -5.380  1.00  0.00    -0.316 OA  
ATOM     31  C19 UNL     1       5.527   0.577  -5.069  1.00  0.00     0.337 C   
ENDBRANCH  22  23
ENDBRANCH  19  22
ENDBRANCH  18  19
BRANCH  18  32
ATOM     32  C20 UNL     1       2.629  -1.072   1.385  1.00  0.00     0.043 C   
ATOM     33  C21 UNL     1       3.808  -1.559   0.538  1.00  0.00     0.010 C   
ATOM     34  C24 UNL     1       3.293  -0.784   2.733  1.00  0.00     0.010 C   
ATOM     35  C22 UNL     1       4.640  -2.405   1.501  1.00  0.00     0.001 C   
ATOM     36  C23 UNL     1       4.264  -1.948   2.911  1.00  0.00     0.001 C   
ENDBRANCH  18  32
ENDBRANCH   3  18
TORSDOF 9
