REMARK SMILES Cc1cccc([C@H](CO)n2cc([C@@H]([NH2+]Cc3ccc4c(c3)OCO4)C3CCCC3)nn2)n1
REMARK SMILES IDX 10 1 11 2 12 3 30 4 31 5 7 7 6 8 2 9 3 10 32 11 4 12 5 13
REMARK SMILES IDX 1 14 8 15 9 16 13 18 14 19 15 22 16 23 17 24 21 25 18 26
REMARK SMILES IDX 20 27 19 28 22 29 24 30 23 31 25 32 26 33 29 34 27 35 28 36
REMARK H PARENT 11 6 9 17 14 20 14 21
ROOT
ATOM     1   N1  UNL     1      -1.810   0.361   0.511  1.00  0.00    -0.201 N   
ATOM     2   C9  UNL     1      -0.741  -0.155  -0.177  1.00  0.00     0.046 A   
ATOM     3   C10 UNL     1       0.344   0.145   0.609  1.00  0.00     0.127 A   
ATOM     4   N3  UNL     1      -0.080   0.824   1.723  1.00  0.00    -0.132 NA  
ATOM     5   N4  UNL     1      -1.392   0.976   1.636  1.00  0.00    -0.075 NA  
ATOM     6   H11 UNL     1      -0.854  -0.650  -1.131  1.00  0.00     0.083 HD  
ENDROOT
BRANCH   1   7
ATOM     7   C7  UNL     1      -3.215   0.423   0.120  1.00  0.00     0.174 C   
BRANCH   7   8
ATOM     8   C6  UNL     1      -3.752  -0.975  -0.138  1.00  0.00     0.066 A   
ATOM     9   C2  UNL     1      -4.147  -2.706  -1.653  1.00  0.00     0.038 A   
ATOM     10  C3  UNL     1      -4.664  -3.516  -0.650  1.00  0.00     0.023 A   
ATOM     11  N5  UNL     1      -3.690  -1.451  -1.413  1.00  0.00    -0.256 NA  
ATOM     12  C4  UNL     1      -4.707  -3.025   0.650  1.00  0.00     0.004 A   
ATOM     13  C5  UNL     1      -4.245  -1.741   0.916  1.00  0.00     0.026 A   
ATOM     14  C1  UNL     1      -4.075  -3.212  -3.061  1.00  0.00     0.067 C   
ENDBRANCH   7   8
BRANCH   7  15
ATOM     15  C8  UNL     1      -3.437   1.389  -1.057  1.00  0.00     0.187 C   
BRANCH  15  16
ATOM     16  O1  UNL     1      -2.758   0.995  -2.254  1.00  0.00    -0.394 OA  
ATOM     17  H10 UNL     1      -3.097   0.089  -2.448  1.00  0.00     0.210 HD  
ENDBRANCH  15  16
ENDBRANCH   7  15
ENDBRANCH   1   7
BRANCH   3  18
ATOM     18  C11 UNL     1       1.806  -0.067   0.384  1.00  0.00     0.117 C   
BRANCH  18  19
ATOM     19  N2  UNL     1       2.522   1.233   0.661  1.00  0.00     0.249 N   
ATOM     20  H13 UNL     1       2.085   1.624   1.510  1.00  0.00     0.199 HD  
ATOM     21  H14 UNL     1       3.510   1.095   0.893  1.00  0.00     0.199 HD  
BRANCH  19  22
ATOM     22  C12 UNL     1       2.404   2.251  -0.420  1.00  0.00     0.164 C   
BRANCH  22  23
ATOM     23  C13 UNL     1       2.809   3.610   0.079  1.00  0.00    -0.002 A   
ATOM     24  C14 UNL     1       1.821   4.501   0.568  1.00  0.00     0.012 A   
ATOM     25  C18 UNL     1       4.161   3.984   0.117  1.00  0.00     0.045 A   
ATOM     26  C15 UNL     1       2.169   5.764   1.059  1.00  0.00     0.037 A   
ATOM     27  C17 UNL     1       4.470   5.232   0.618  1.00  0.00     0.109 A   
ATOM     28  C16 UNL     1       3.505   6.098   1.072  1.00  0.00     0.108 A   
ATOM     29  O2  UNL     1       5.724   5.748   0.732  1.00  0.00    -0.316 OA  
ATOM     30  O3  UNL     1       4.025   7.273   1.511  1.00  0.00    -0.316 OA  
ATOM     31  C19 UNL     1       5.439   7.043   1.309  1.00  0.00     0.337 C   
ENDBRANCH  22  23
ENDBRANCH  19  22
ENDBRANCH  18  19
BRANCH  18  32
ATOM     32  C20 UNL     1       2.380  -1.159   1.304  1.00  0.00     0.043 C   
ATOM     33  C21 UNL     1       1.744  -2.536   1.075  1.00  0.00     0.010 C   
ATOM     34  C24 UNL     1       3.881  -1.432   1.104  1.00  0.00     0.010 C   
ATOM     35  C22 UNL     1       2.724  -3.478   1.754  1.00  0.00     0.001 C   
ATOM     36  C23 UNL     1       4.091  -2.925   1.377  1.00  0.00     0.001 C   
ENDBRANCH  18  32
ENDBRANCH   3  18
TORSDOF 9
