REMARK SMILES CCc1ccccc1[C@@H](CO)n1cc([C@@H]([NH2+]Cc2ccc3c(c2)OCO3)C(C)(C)C)nn1
REMARK SMILES IDX 12 1 13 2 14 3 31 4 32 5 9 7 8 8 3 9 4 10 5 11 7 12 6 13
REMARK SMILES IDX 2 14 1 15 10 16 11 17 15 19 16 20 17 23 18 24 19 25 23 26
REMARK SMILES IDX 20 27 22 28 21 29 24 30 26 31 25 32 27 33 28 34 29 35 30 36
REMARK H PARENT 13 6 11 18 16 21 16 22
ROOT
ATOM     1   N1  UNL     1      -1.712  -1.258  -1.351  1.00  0.00    -0.202 N   
ATOM     2   C11 UNL     1      -1.254  -0.300  -0.487  1.00  0.00     0.046 A   
ATOM     3   C12 UNL     1      -1.352   0.873  -1.198  1.00  0.00     0.127 A   
ATOM     4   N3  UNL     1      -1.813   0.596  -2.460  1.00  0.00    -0.132 NA  
ATOM     5   N4  UNL     1      -2.033  -0.706  -2.543  1.00  0.00    -0.075 NA  
ATOM     6   H14 UNL     1      -0.938  -0.539   0.520  1.00  0.00     0.083 HD  
ENDROOT
BRANCH   1   7
ATOM     7   C9  UNL     1      -1.881  -2.694  -1.129  1.00  0.00     0.155 C   
BRANCH   7   8
ATOM     8   C8  UNL     1      -0.585  -3.324  -0.609  1.00  0.00    -0.020 A   
ATOM     9   C3  UNL     1       0.527  -3.572  -1.460  1.00  0.00    -0.043 A   
ATOM     10  C4  UNL     1       1.691  -4.163  -0.923  1.00  0.00     0.004 A   
ATOM     11  C5  UNL     1       1.778  -4.497   0.425  1.00  0.00     0.000 A   
ATOM     12  C7  UNL     1      -0.461  -3.666   0.755  1.00  0.00     0.006 A   
ATOM     13  C6  UNL     1       0.703  -4.245   1.265  1.00  0.00     0.000 A   
BRANCH   9  14
ATOM     14  C2  UNL     1       0.565  -3.225  -2.936  1.00  0.00     0.032 C   
ATOM     15  C1  UNL     1       1.394  -1.978  -3.210  1.00  0.00     0.009 C   
ENDBRANCH   9  14
ENDBRANCH   7   8
BRANCH   7  16
ATOM     16  C10 UNL     1      -3.187  -2.967  -0.344  1.00  0.00     0.185 C   
BRANCH  16  17
ATOM     17  O1  UNL     1      -3.259  -2.268   0.899  1.00  0.00    -0.394 OA  
ATOM     18  H13 UNL     1      -4.136  -2.461   1.282  1.00  0.00     0.210 HD  
ENDBRANCH  16  17
ENDBRANCH   7  16
ENDBRANCH   1   7
BRANCH   3  19
ATOM     19  C13 UNL     1      -0.985   2.278  -0.832  1.00  0.00     0.120 C   
BRANCH  19  20
ATOM     20  N2  UNL     1      -0.402   2.959  -2.054  1.00  0.00     0.250 N   
ATOM     21  H16 UNL     1      -0.378   3.974  -1.940  1.00  0.00     0.199 HD  
ATOM     22  H17 UNL     1      -1.052   2.752  -2.826  1.00  0.00     0.199 HD  
BRANCH  20  23
ATOM     23  C14 UNL     1       0.952   2.493  -2.482  1.00  0.00     0.164 C   
BRANCH  23  24
ATOM     24  C15 UNL     1       2.039   2.948  -1.550  1.00  0.00    -0.002 A   
ATOM     25  C16 UNL     1       2.481   4.294  -1.569  1.00  0.00     0.012 A   
ATOM     26  C20 UNL     1       2.600   2.047  -0.626  1.00  0.00     0.045 A   
ATOM     27  C17 UNL     1       3.462   4.741  -0.677  1.00  0.00     0.037 A   
ATOM     28  C19 UNL     1       3.562   2.521   0.242  1.00  0.00     0.109 A   
ATOM     29  C18 UNL     1       3.980   3.829   0.219  1.00  0.00     0.108 A   
ATOM     30  O2  UNL     1       4.193   1.791   1.200  1.00  0.00    -0.316 OA  
ATOM     31  O3  UNL     1       4.929   4.086   1.158  1.00  0.00    -0.316 OA  
ATOM     32  C21 UNL     1       5.095   2.779   1.750  1.00  0.00     0.337 C   
ENDBRANCH  23  24
ENDBRANCH  20  23
ENDBRANCH  19  20
BRANCH  19  33
ATOM     33  C22 UNL     1      -2.175   3.123  -0.252  1.00  0.00     0.010 C   
ATOM     34  C23 UNL     1      -3.296   3.365  -1.282  1.00  0.00     0.017 C   
ATOM     35  C24 UNL     1      -1.666   4.499   0.240  1.00  0.00     0.017 C   
ATOM     36  C25 UNL     1      -2.789   2.404   0.971  1.00  0.00     0.017 C   
ENDBRANCH  19  33
ENDBRANCH   3  19
TORSDOF 10
