REMARK SMILES CCc1ccccc1[C@H](CO)n1cc([C@@H]([NH2+]Cc2ccc3c(c2)OCO3)C(C)(C)C)nn1
REMARK SMILES IDX 12 1 13 2 14 3 31 4 32 5 9 7 8 8 3 9 4 10 5 11 7 12 6 13
REMARK SMILES IDX 2 14 1 15 10 16 11 17 15 19 16 20 17 23 18 24 19 25 23 26
REMARK SMILES IDX 20 27 22 28 21 29 24 30 26 31 25 32 27 33 28 34 29 35 30 36
REMARK H PARENT 13 6 11 18 16 21 16 22
ROOT
ATOM     1   N1  UNL     1       0.542  -1.133  -2.478  1.00  0.00    -0.202 N   
ATOM     2   C11 UNL     1       0.743  -1.734  -1.259  1.00  0.00     0.046 A   
ATOM     3   C12 UNL     1      -0.386  -1.422  -0.536  1.00  0.00     0.127 A   
ATOM     4   N3  UNL     1      -1.203  -0.632  -1.303  1.00  0.00    -0.132 NA  
ATOM     5   N4  UNL     1      -0.632  -0.467  -2.484  1.00  0.00    -0.075 NA  
ATOM     6   H14 UNL     1       1.634  -2.307  -1.043  1.00  0.00     0.083 HD  
ENDROOT
BRANCH   1   7
ATOM     7   C9  UNL     1       1.426  -1.189  -3.644  1.00  0.00     0.155 C   
BRANCH   7   8
ATOM     8   C8  UNL     1       2.696  -0.366  -3.417  1.00  0.00    -0.020 A   
ATOM     9   C3  UNL     1       2.750   1.037  -3.241  1.00  0.00    -0.043 A   
ATOM     10  C4  UNL     1       4.006   1.652  -3.048  1.00  0.00     0.004 A   
ATOM     11  C5  UNL     1       5.187   0.915  -3.028  1.00  0.00     0.000 A   
ATOM     12  C7  UNL     1       3.913  -1.089  -3.401  1.00  0.00     0.006 A   
ATOM     13  C6  UNL     1       5.141  -0.459  -3.206  1.00  0.00     0.000 A   
BRANCH   9  14
ATOM     14  C2  UNL     1       1.549   1.958  -3.240  1.00  0.00     0.032 C   
ATOM     15  C1  UNL     1       1.188   2.442  -1.840  1.00  0.00     0.009 C   
ENDBRANCH   9  14
ENDBRANCH   7   8
BRANCH   7  16
ATOM     16  C10 UNL     1       0.744  -0.927  -5.001  1.00  0.00     0.185 C   
BRANCH  16  17
ATOM     17  O1  UNL     1       0.018  -2.091  -5.413  1.00  0.00    -0.394 OA  
ATOM     18  H13 UNL     1      -0.481  -1.847  -6.215  1.00  0.00     0.210 HD  
ENDBRANCH  16  17
ENDBRANCH   7  16
ENDBRANCH   1   7
BRANCH   3  19
ATOM     19  C13 UNL     1      -0.780  -1.731   0.877  1.00  0.00     0.120 C   
BRANCH  19  20
ATOM     20  N2  UNL     1      -1.597  -0.573   1.402  1.00  0.00     0.250 N   
ATOM     21  H16 UNL     1      -2.231  -0.300   0.634  1.00  0.00     0.199 HD  
ATOM     22  H17 UNL     1      -2.203  -0.830   2.184  1.00  0.00     0.199 HD  
BRANCH  20  23
ATOM     23  C14 UNL     1      -0.816   0.641   1.768  1.00  0.00     0.164 C   
BRANCH  23  24
ATOM     24  C15 UNL     1      -1.741   1.787   2.067  1.00  0.00    -0.002 A   
ATOM     25  C16 UNL     1      -2.225   2.598   1.012  1.00  0.00     0.012 A   
ATOM     26  C20 UNL     1      -2.176   2.024   3.382  1.00  0.00     0.045 A   
ATOM     27  C17 UNL     1      -3.124   3.641   1.263  1.00  0.00     0.037 A   
ATOM     28  C19 UNL     1      -3.063   3.059   3.593  1.00  0.00     0.109 A   
ATOM     29  C18 UNL     1      -3.524   3.845   2.565  1.00  0.00     0.108 A   
ATOM     30  O2  UNL     1      -3.584   3.419   4.796  1.00  0.00    -0.316 OA  
ATOM     31  O3  UNL     1      -4.390   4.800   2.992  1.00  0.00    -0.316 OA  
ATOM     32  C21 UNL     1      -4.413   4.540   4.412  1.00  0.00     0.337 C   
ENDBRANCH  23  24
ENDBRANCH  20  23
ENDBRANCH  19  20
BRANCH  19  33
ATOM     33  C22 UNL     1      -1.571  -3.075   1.047  1.00  0.00     0.010 C   
ATOM     34  C23 UNL     1      -2.937  -3.054   0.334  1.00  0.00     0.017 C   
ATOM     35  C24 UNL     1      -1.809  -3.371   2.546  1.00  0.00     0.017 C   
ATOM     36  C25 UNL     1      -0.747  -4.256   0.485  1.00  0.00     0.017 C   
ENDBRANCH  19  33
ENDBRANCH   3  19
TORSDOF 10
