REMARK SMILES O[C@@H](Cn1cc([C@@H]([NH2+]Cc2ccc3c(c2)OCO3)C2CCCC2)nn1)c1ccc(F)c(F)c1
REMARK SMILES IDX 4 1 5 2 6 3 24 4 25 5 3 7 2 8 1 9 26 11 27 12 33 13 28 14
REMARK SMILES IDX 31 15 29 16 32 17 30 18 7 19 8 20 9 23 10 24 11 25 15 26
REMARK SMILES IDX 12 27 14 28 13 29 16 30 18 31 17 32 19 33 20 34 23 35 21 36
REMARK SMILES IDX 22 37
REMARK H PARENT 5 6 1 10 8 21 8 22
ROOT
ATOM     1   N1  UNL     1       1.533   0.410   2.339  1.00  0.00    -0.209 N   
ATOM     2   C3  UNL     1       0.432  -0.322   1.991  1.00  0.00     0.045 A   
ATOM     3   C4  UNL     1       0.825  -0.991   0.853  1.00  0.00     0.127 A   
ATOM     4   N3  UNL     1       2.125  -0.663   0.565  1.00  0.00    -0.132 NA  
ATOM     5   N4  UNL     1       2.547   0.192   1.482  1.00  0.00    -0.076 NA  
ATOM     6   H5  UNL     1      -0.496  -0.275   2.544  1.00  0.00     0.083 HD  
ENDROOT
BRANCH   1   7
ATOM     7   C2  UNL     1       1.645   1.416   3.373  1.00  0.00     0.170 C   
BRANCH   7   8
ATOM     8   C1  UNL     1       1.783   2.840   2.813  1.00  0.00     0.164 C   
BRANCH   8   9
ATOM     9   O1  UNL     1       1.833   3.759   3.905  1.00  0.00    -0.387 OA  
ATOM     10  H1  UNL     1       1.868   4.658   3.530  1.00  0.00     0.211 HD  
ENDBRANCH   8   9
BRANCH   8  11
ATOM     11  C19 UNL     1       0.637   3.214   1.888  1.00  0.00    -0.015 A   
ATOM     12  C20 UNL     1      -0.609   3.628   2.390  1.00  0.00     0.010 A   
ATOM     13  C24 UNL     1       0.792   3.061   0.500  1.00  0.00     0.049 A   
ATOM     14  C21 UNL     1      -1.679   3.872   1.524  1.00  0.00     0.043 A   
ATOM     15  C23 UNL     1      -0.285   3.284  -0.351  1.00  0.00     0.159 A   
ATOM     16  C22 UNL     1      -1.512   3.688   0.157  1.00  0.00     0.158 A   
ATOM     17  F2  UNL     1      -0.140   3.044  -1.662  1.00  0.00    -0.204 F   
ATOM     18  F1  UNL     1      -2.554   3.861  -0.666  1.00  0.00    -0.204 F   
ENDBRANCH   8  11
ENDBRANCH   7   8
ENDBRANCH   1   7
BRANCH   3  19
ATOM     19  C5  UNL     1       0.075  -1.905  -0.064  1.00  0.00     0.117 C   
BRANCH  19  20
ATOM     20  N2  UNL     1       0.615  -1.774  -1.468  1.00  0.00     0.249 N   
ATOM     21  H7  UNL     1       0.457  -2.627  -2.010  1.00  0.00     0.199 HD  
ATOM     22  H8  UNL     1       1.636  -1.673  -1.372  1.00  0.00     0.199 HD  
BRANCH  20  23
ATOM     23  C6  UNL     1       0.127  -0.597  -2.247  1.00  0.00     0.164 C   
BRANCH  23  24
ATOM     24  C7  UNL     1      -1.304  -0.746  -2.683  1.00  0.00    -0.002 A   
ATOM     25  C8  UNL     1      -2.310   0.082  -2.130  1.00  0.00     0.012 A   
ATOM     26  C12 UNL     1      -1.658  -1.722  -3.631  1.00  0.00     0.045 A   
ATOM     27  C9  UNL     1      -3.650  -0.064  -2.505  1.00  0.00     0.037 A   
ATOM     28  C11 UNL     1      -2.988  -1.841  -3.977  1.00  0.00     0.109 A   
ATOM     29  C10 UNL     1      -3.957  -1.038  -3.429  1.00  0.00     0.108 A   
ATOM     30  O2  UNL     1      -3.495  -2.733  -4.867  1.00  0.00    -0.316 OA  
ATOM     31  O3  UNL     1      -5.196  -1.321  -3.907  1.00  0.00    -0.316 OA  
ATOM     32  C13 UNL     1      -4.896  -2.373  -4.848  1.00  0.00     0.337 C   
ENDBRANCH  23  24
ENDBRANCH  20  23
ENDBRANCH  19  20
BRANCH  19  33
ATOM     33  C14 UNL     1       0.141  -3.370   0.410  1.00  0.00     0.043 C   
ATOM     34  C15 UNL     1      -0.824  -4.312  -0.321  1.00  0.00     0.010 C   
ATOM     35  C18 UNL     1       1.516  -4.061   0.316  1.00  0.00     0.010 C   
ATOM     36  C16 UNL     1      -0.252  -5.688  -0.022  1.00  0.00     0.001 C   
ATOM     37  C17 UNL     1       1.245  -5.479  -0.188  1.00  0.00     0.001 C   
ENDBRANCH  19  33
ENDBRANCH   3  19
TORSDOF 9
