REMARK SMILES O[C@H](Cn1cc([C@@H]([NH2+]Cc2ccc3c(c2)OCO3)C2CCCC2)nn1)c1ccc(F)c(F)c1
REMARK SMILES IDX 4 1 5 2 6 3 24 4 25 5 3 7 2 8 1 9 26 11 27 12 33 13 28 14
REMARK SMILES IDX 31 15 29 16 32 17 30 18 7 19 8 20 9 23 10 24 11 25 15 26
REMARK SMILES IDX 12 27 14 28 13 29 16 30 18 31 17 32 19 33 20 34 23 35 21 36
REMARK SMILES IDX 22 37
REMARK H PARENT 5 6 1 10 8 21 8 22
ROOT
ATOM     1   N1  UNL     1      -1.849   1.765  -0.187  1.00  0.00    -0.209 N   
ATOM     2   C3  UNL     1      -0.629   1.353  -0.644  1.00  0.00     0.045 A   
ATOM     3   C4  UNL     1       0.048   0.989   0.500  1.00  0.00     0.127 A   
ATOM     4   N3  UNL     1      -0.752   1.226   1.591  1.00  0.00    -0.132 NA  
ATOM     5   N4  UNL     1      -1.896   1.727   1.160  1.00  0.00    -0.076 NA  
ATOM     6   H5  UNL     1      -0.385   1.317  -1.698  1.00  0.00     0.083 HD  
ENDROOT
BRANCH   1   7
ATOM     7   C2  UNL     1      -3.022   2.118  -0.956  1.00  0.00     0.170 C   
BRANCH   7   8
ATOM     8   C1  UNL     1      -4.192   1.140  -0.750  1.00  0.00     0.164 C   
BRANCH   8   9
ATOM     9   O1  UNL     1      -5.312   1.603  -1.506  1.00  0.00    -0.387 OA  
ATOM     10  H1  UNL     1      -6.080   1.053  -1.260  1.00  0.00     0.211 HD  
ENDBRANCH   8   9
BRANCH   8  11
ATOM     11  C19 UNL     1      -3.849  -0.273  -1.188  1.00  0.00    -0.015 A   
ATOM     12  C20 UNL     1      -3.883  -0.650  -2.542  1.00  0.00     0.010 A   
ATOM     13  C24 UNL     1      -3.430  -1.216  -0.234  1.00  0.00     0.049 A   
ATOM     14  C21 UNL     1      -3.503  -1.937  -2.932  1.00  0.00     0.043 A   
ATOM     15  C23 UNL     1      -3.043  -2.493  -0.635  1.00  0.00     0.159 A   
ATOM     16  C22 UNL     1      -3.080  -2.851  -1.975  1.00  0.00     0.158 A   
ATOM     17  F2  UNL     1      -2.611  -3.363   0.286  1.00  0.00    -0.204 F   
ATOM     18  F1  UNL     1      -2.696  -4.077  -2.356  1.00  0.00    -0.204 F   
ENDBRANCH   8  11
ENDBRANCH   7   8
ENDBRANCH   1   7
BRANCH   3  19
ATOM     19  C5  UNL     1       1.411   0.401   0.695  1.00  0.00     0.117 C   
BRANCH  19  20
ATOM     20  N2  UNL     1       1.874   0.600   2.118  1.00  0.00     0.249 N   
ATOM     21  H7  UNL     1       2.655  -0.020   2.344  1.00  0.00     0.199 HD  
ATOM     22  H8  UNL     1       1.083   0.322   2.714  1.00  0.00     0.199 HD  
BRANCH  20  23
ATOM     23  C6  UNL     1       2.239   1.995   2.509  1.00  0.00     0.164 C   
BRANCH  23  24
ATOM     24  C7  UNL     1       3.555   2.435   1.932  1.00  0.00    -0.002 A   
ATOM     25  C8  UNL     1       4.770   1.948   2.466  1.00  0.00     0.012 A   
ATOM     26  C12 UNL     1       3.583   3.319   0.840  1.00  0.00     0.045 A   
ATOM     27  C9  UNL     1       5.997   2.333   1.920  1.00  0.00     0.037 A   
ATOM     28  C11 UNL     1       4.809   3.676   0.325  1.00  0.00     0.109 A   
ATOM     29  C10 UNL     1       5.982   3.197   0.848  1.00  0.00     0.108 A   
ATOM     30  O2  UNL     1       5.011   4.511  -0.727  1.00  0.00    -0.316 OA  
ATOM     31  O3  UNL     1       7.071   3.675   0.196  1.00  0.00    -0.316 OA  
ATOM     32  C13 UNL     1       6.456   4.543  -0.778  1.00  0.00     0.337 C   
ENDBRANCH  23  24
ENDBRANCH  20  23
ENDBRANCH  19  20
BRANCH  19  33
ATOM     33  C14 UNL     1       1.419  -1.098   0.327  1.00  0.00     0.043 C   
ATOM     34  C15 UNL     1       0.682  -2.038   1.284  1.00  0.00     0.010 C   
ATOM     35  C18 UNL     1       2.806  -1.738   0.252  1.00  0.00     0.010 C   
ATOM     36  C16 UNL     1       1.123  -3.422   0.824  1.00  0.00     0.001 C   
ATOM     37  C17 UNL     1       2.530  -3.241   0.251  1.00  0.00     0.001 C   
ENDBRANCH  19  33
ENDBRANCH   3  19
TORSDOF 9
