REMARK SMILES CC(C)C[C@H]([NH2+]Cc1ccc2c(c1)OCO2)c1cn([C@H](CO)c2ccncc2F)nn1
REMARK SMILES IDX 17 1 18 2 19 3 30 4 31 5 5 7 4 8 2 9 1 10 3 11 6 12 7 15
REMARK SMILES IDX 8 16 9 17 13 18 10 19 12 20 11 21 14 22 16 23 15 24 20 25
REMARK SMILES IDX 21 26 22 27 23 29 24 30 28 31 25 32 27 33 26 34 29 35
REMARK H PARENT 18 6 6 13 6 14 22 28
ROOT
ATOM     1   C14 UNL     1       0.218   1.707   0.328  1.00  0.00     0.127 A   
ATOM     2   C15 UNL     1       0.667   1.500  -0.957  1.00  0.00     0.046 A   
ATOM     3   N2  UNL     1       1.565   2.512  -1.168  1.00  0.00    -0.202 N   
ATOM     4   N4  UNL     1       1.689   3.268  -0.053  1.00  0.00    -0.075 NA  
ATOM     5   N5  UNL     1       0.854   2.798   0.857  1.00  0.00    -0.132 NA  
ATOM     6   H20 UNL     1       0.434   0.758  -1.708  1.00  0.00     0.083 HD  
ENDROOT
BRANCH   1   7
ATOM     7   C5  UNL     1      -0.756   0.942   1.163  1.00  0.00     0.114 C   
BRANCH   7   8
ATOM     8   C4  UNL     1      -2.177   1.524   1.010  1.00  0.00     0.064 C   
BRANCH   8   9
ATOM     9   C2  UNL     1      -3.306   0.789   1.763  1.00  0.00    -0.012 C   
ATOM     10  C1  UNL     1      -4.644   1.481   1.482  1.00  0.00     0.007 C   
ATOM     11  C3  UNL     1      -3.401  -0.689   1.383  1.00  0.00     0.007 C   
ENDBRANCH   8   9
ENDBRANCH   7   8
BRANCH   7  12
ATOM     12  N1  UNL     1      -0.358   0.991   2.620  1.00  0.00     0.249 N   
ATOM     13  H11 UNL     1      -0.252   1.988   2.856  1.00  0.00     0.199 HD  
ATOM     14  H12 UNL     1      -1.103   0.614   3.210  1.00  0.00     0.199 HD  
BRANCH  12  15
ATOM     15  C6  UNL     1       0.924   0.312   2.981  1.00  0.00     0.164 C   
BRANCH  15  16
ATOM     16  C7  UNL     1       0.884  -1.173   2.751  1.00  0.00    -0.002 A   
ATOM     17  C8  UNL     1       1.604  -1.747   1.676  1.00  0.00     0.012 A   
ATOM     18  C12 UNL     1       0.104  -1.998   3.580  1.00  0.00     0.045 A   
ATOM     19  C9  UNL     1       1.544  -3.121   1.422  1.00  0.00     0.037 A   
ATOM     20  C11 UNL     1       0.066  -3.348   3.301  1.00  0.00     0.109 A   
ATOM     21  C10 UNL     1       0.764  -3.894   2.252  1.00  0.00     0.108 A   
ATOM     22  O1  UNL     1      -0.643  -4.277   3.994  1.00  0.00    -0.316 OA  
ATOM     23  O2  UNL     1       0.585  -5.237   2.154  1.00  0.00    -0.316 OA  
ATOM     24  C13 UNL     1      -0.285  -5.483   3.280  1.00  0.00     0.337 C   
ENDBRANCH  15  16
ENDBRANCH  12  15
ENDBRANCH   7  12
ENDBRANCH   1   7
BRANCH   3  25
ATOM     25  C16 UNL     1       2.393   2.809  -2.338  1.00  0.00     0.158 C   
BRANCH  25  26
ATOM     26  C17 UNL     1       1.742   2.425  -3.682  1.00  0.00     0.186 C   
BRANCH  26  27
ATOM     27  O3  UNL     1       0.551   3.179  -3.897  1.00  0.00    -0.394 OA  
ATOM     28  H24 UNL     1       0.278   3.042  -4.823  1.00  0.00     0.210 HD  
ENDBRANCH  26  27
ENDBRANCH  25  26
BRANCH  25  29
ATOM     29  C18 UNL     1       3.771   2.202  -2.161  1.00  0.00     0.016 A   
ATOM     30  C19 UNL     1       4.883   3.020  -1.917  1.00  0.00     0.029 A   
ATOM     31  C22 UNL     1       3.982   0.823  -2.213  1.00  0.00     0.146 A   
ATOM     32  C20 UNL     1       6.129   2.430  -1.744  1.00  0.00     0.111 A   
ATOM     33  C21 UNL     1       5.259   0.320  -2.034  1.00  0.00     0.150 A   
ATOM     34  N3  UNL     1       6.338   1.097  -1.797  1.00  0.00    -0.262 NA  
ATOM     35  F1  UNL     1       2.958  -0.017  -2.418  1.00  0.00    -0.205 F   
ENDBRANCH  25  29
ENDBRANCH   3  25
TORSDOF 10
