REMARK SMILES CC(C)C[C@H]([NH2+]Cc1ccc2c(c1)OCO2)c1cn([C@@H](CO)c2ccncc2F)nn1
REMARK SMILES IDX 17 1 18 2 19 3 30 4 31 5 5 7 4 8 2 9 1 10 3 11 6 12 7 15
REMARK SMILES IDX 8 16 9 17 13 18 10 19 12 20 11 21 14 22 16 23 15 24 20 25
REMARK SMILES IDX 21 26 22 27 23 29 24 30 28 31 25 32 27 33 26 34 29 35
REMARK H PARENT 18 6 6 13 6 14 22 28
ROOT
ATOM     1   C14 UNL     1      -1.312  -0.215   0.789  1.00  0.00     0.127 A   
ATOM     2   C15 UNL     1      -0.098  -0.729   0.393  1.00  0.00     0.046 A   
ATOM     3   N2  UNL     1      -0.365  -2.046   0.130  1.00  0.00    -0.202 N   
ATOM     4   N4  UNL     1      -1.675  -2.313   0.318  1.00  0.00    -0.075 NA  
ATOM     5   N5  UNL     1      -2.261  -1.203   0.735  1.00  0.00    -0.132 NA  
ATOM     6   H20 UNL     1       0.890  -0.306   0.280  1.00  0.00     0.083 HD  
ENDROOT
BRANCH   1   7
ATOM     7   C5  UNL     1      -1.711   1.169   1.173  1.00  0.00     0.114 C   
BRANCH   7   8
ATOM     8   C4  UNL     1      -1.847   1.344   2.698  1.00  0.00     0.064 C   
BRANCH   8   9
ATOM     9   C2  UNL     1      -0.544   1.148   3.502  1.00  0.00    -0.012 C   
ATOM     10  C1  UNL     1       0.544   2.147   3.102  1.00  0.00     0.007 C   
ATOM     11  C3  UNL     1      -0.837   1.279   4.999  1.00  0.00     0.007 C   
ENDBRANCH   8   9
ENDBRANCH   7   8
BRANCH   7  12
ATOM     12  N1  UNL     1      -3.063   1.508   0.573  1.00  0.00     0.249 N   
ATOM     13  H11 UNL     1      -3.706   0.763   0.876  1.00  0.00     0.199 HD  
ATOM     14  H12 UNL     1      -3.407   2.389   0.965  1.00  0.00     0.199 HD  
BRANCH  12  15
ATOM     15  C6  UNL     1      -3.133   1.572  -0.918  1.00  0.00     0.164 C   
BRANCH  15  16
ATOM     16  C7  UNL     1      -2.275   2.659  -1.503  1.00  0.00    -0.002 A   
ATOM     17  C8  UNL     1      -2.650   4.018  -1.377  1.00  0.00     0.012 A   
ATOM     18  C12 UNL     1      -1.071   2.330  -2.151  1.00  0.00     0.045 A   
ATOM     19  C9  UNL     1      -1.836   5.037  -1.883  1.00  0.00     0.037 A   
ATOM     20  C11 UNL     1      -0.292   3.359  -2.637  1.00  0.00     0.109 A   
ATOM     21  C10 UNL     1      -0.662   4.674  -2.506  1.00  0.00     0.108 A   
ATOM     22  O1  UNL     1       0.898   3.216  -3.277  1.00  0.00    -0.316 OA  
ATOM     23  O2  UNL     1       0.246   5.525  -3.050  1.00  0.00    -0.316 OA  
ATOM     24  C13 UNL     1       1.221   4.595  -3.567  1.00  0.00     0.337 C   
ENDBRANCH  15  16
ENDBRANCH  12  15
ENDBRANCH   7  12
ENDBRANCH   1   7
BRANCH   3  25
ATOM     25  C16 UNL     1       0.563  -3.070  -0.354  1.00  0.00     0.158 C   
BRANCH  25  26
ATOM     26  C17 UNL     1       0.686  -4.224   0.656  1.00  0.00     0.186 C   
BRANCH  26  27
ATOM     27  O3  UNL     1       1.396  -3.784   1.816  1.00  0.00    -0.394 OA  
ATOM     28  H24 UNL     1       1.473  -4.550   2.416  1.00  0.00     0.210 HD  
ENDBRANCH  26  27
ENDBRANCH  25  26
BRANCH  25  29
ATOM     29  C18 UNL     1       0.185  -3.476  -1.765  1.00  0.00     0.016 A   
ATOM     30  C19 UNL     1      -0.641  -4.570  -2.058  1.00  0.00     0.029 A   
ATOM     31  C22 UNL     1       0.635  -2.702  -2.837  1.00  0.00     0.146 A   
ATOM     32  C20 UNL     1      -0.954  -4.839  -3.385  1.00  0.00     0.111 A   
ATOM     33  C21 UNL     1       0.279  -3.045  -4.129  1.00  0.00     0.150 A   
ATOM     34  N3  UNL     1      -0.511  -4.101  -4.426  1.00  0.00    -0.262 NA  
ATOM     35  F1  UNL     1       1.393  -1.619  -2.616  1.00  0.00    -0.205 F   
ENDBRANCH  25  29
ENDBRANCH   3  25
TORSDOF 10
