REMARK SMILES CC(C)C[C@H]([NH2+]Cc1ccc2c(c1)OCO2)c1cn(Cc2ncoc2C(F)(F)F)nn1
REMARK SMILES IDX 17 1 18 2 19 3 30 4 31 5 5 7 4 8 2 9 1 10 3 11 6 12 7 15
REMARK SMILES IDX 8 16 9 17 13 18 10 19 12 20 11 21 14 22 16 23 15 24 20 25
REMARK SMILES IDX 21 26 22 27 25 28 23 29 24 30 26 31 27 32 28 33 29 34
REMARK H PARENT 18 6 6 13 6 14
ROOT
ATOM     1   C14 UNL     1       0.314   0.343   1.794  1.00  0.00     0.127 A   
ATOM     2   C15 UNL     1       1.150  -0.181   2.754  1.00  0.00     0.046 A   
ATOM     3   N2  UNL     1       0.795  -1.502   2.817  1.00  0.00    -0.206 N   
ATOM     4   N4  UNL     1      -0.191  -1.776   1.941  1.00  0.00    -0.076 NA  
ATOM     5   N5  UNL     1      -0.503  -0.652   1.319  1.00  0.00    -0.132 NA  
ATOM     6   H20 UNL     1       1.941   0.233   3.365  1.00  0.00     0.083 HD  
ENDROOT
BRANCH   1   7
ATOM     7   C5  UNL     1       0.207   1.720   1.218  1.00  0.00     0.114 C   
BRANCH   7   8
ATOM     8   C4  UNL     1      -0.746   2.589   2.064  1.00  0.00     0.064 C   
BRANCH   8   9
ATOM     9   C2  UNL     1      -0.917   4.058   1.621  1.00  0.00    -0.012 C   
ATOM     10  C1  UNL     1       0.414   4.806   1.535  1.00  0.00     0.007 C   
ATOM     11  C3  UNL     1      -1.853   4.782   2.595  1.00  0.00     0.007 C   
ENDBRANCH   8   9
ENDBRANCH   7   8
BRANCH   7  12
ATOM     12  N1  UNL     1      -0.305   1.652  -0.195  1.00  0.00     0.249 N   
ATOM     13  H11 UNL     1      -1.113   1.010  -0.189  1.00  0.00     0.199 HD  
ATOM     14  H12 UNL     1      -0.657   2.554  -0.525  1.00  0.00     0.199 HD  
BRANCH  12  15
ATOM     15  C6  UNL     1       0.666   1.129  -1.197  1.00  0.00     0.164 C   
BRANCH  15  16
ATOM     16  C7  UNL     1       0.021   1.039  -2.551  1.00  0.00    -0.002 A   
ATOM     17  C8  UNL     1      -0.687  -0.129  -2.923  1.00  0.00     0.012 A   
ATOM     18  C12 UNL     1       0.066   2.133  -3.432  1.00  0.00     0.045 A   
ATOM     19  C9  UNL     1      -1.331  -0.214  -4.162  1.00  0.00     0.037 A   
ATOM     20  C11 UNL     1      -0.581   2.016  -4.645  1.00  0.00     0.109 A   
ATOM     21  C10 UNL     1      -1.258   0.876  -5.000  1.00  0.00     0.108 A   
ATOM     22  O1  UNL     1      -0.636   2.974  -5.606  1.00  0.00    -0.316 OA  
ATOM     23  O2  UNL     1      -1.822   0.971  -6.232  1.00  0.00    -0.316 OA  
ATOM     24  C13 UNL     1      -1.406   2.296  -6.625  1.00  0.00     0.337 C   
ENDBRANCH  15  16
ENDBRANCH  12  15
ENDBRANCH   7  12
ENDBRANCH   1   7
BRANCH   3  25
ATOM     25  C16 UNL     1       1.360  -2.551   3.645  1.00  0.00     0.193 C   
BRANCH  25  26
ATOM     26  C17 UNL     1       2.511  -3.175   2.945  1.00  0.00     0.098 A   
ATOM     27  N3  UNL     1       3.800  -2.735   3.169  1.00  0.00    -0.232 NA  
ATOM     28  C19 UNL     1       2.530  -4.199   2.016  1.00  0.00     0.187 A   
ATOM     29  C18 UNL     1       4.537  -3.510   2.404  1.00  0.00     0.247 A   
ATOM     30  O3  UNL     1       3.839  -4.410   1.663  1.00  0.00    -0.291 OA  
BRANCH  28  31
ATOM     31  C20 UNL     1       1.485  -5.022   1.372  1.00  0.00     0.440 C   
ATOM     32  F1  UNL     1       1.885  -6.298   1.157  1.00  0.00    -0.164 F   
ATOM     33  F2  UNL     1       1.116  -4.507   0.172  1.00  0.00    -0.164 F   
ATOM     34  F3  UNL     1       0.364  -5.084   2.136  1.00  0.00    -0.164 F   
ENDBRANCH  28  31
ENDBRANCH  25  26
ENDBRANCH   3  25
TORSDOF 9
