REMARK SMILES CC(C)(C)[C@H]([NH2+]Cc1ccc2c(c1)OCO2)c1cn(-c2ccc(CO)cc2)nn1
REMARK SMILES IDX 17 1 18 2 19 3 28 4 29 5 5 6 2 7 1 8 3 9 4 10 6 11 7 14 8 15
REMARK SMILES IDX 9 16 13 17 10 18 12 19 11 20 14 21 16 22 15 23 20 24 21 25
REMARK SMILES IDX 27 26 22 27 26 28 23 29 24 30 25 31
REMARK H PARENT 6 12 6 13 25 32
ROOT
ATOM     1   C14 UNL     1       0.959   0.499   1.201  1.00  0.00     0.128 A   
ATOM     2   C15 UNL     1       0.791   1.701   0.549  1.00  0.00     0.135 A   
ATOM     3   N2  UNL     1       1.987   2.372   0.717  1.00  0.00    -0.181 N   
ATOM     4   N3  UNL     1       2.842   1.570   1.404  1.00  0.00    -0.071 NA  
ATOM     5   N4  UNL     1       2.226   0.441   1.710  1.00  0.00    -0.131 NA  
ENDROOT
BRANCH   1   6
ATOM     6   C5  UNL     1       0.047  -0.682   1.348  1.00  0.00     0.120 C   
BRANCH   6   7
ATOM     7   C2  UNL     1      -0.815  -0.664   2.662  1.00  0.00     0.010 C   
ATOM     8   C1  UNL     1      -1.645   0.638   2.737  1.00  0.00     0.017 C   
ATOM     9   C3  UNL     1       0.040  -0.767   3.940  1.00  0.00     0.017 C   
ATOM     10  C4  UNL     1      -1.824  -1.837   2.659  1.00  0.00     0.017 C   
ENDBRANCH   6   7
BRANCH   6  11
ATOM     11  N1  UNL     1       0.867  -1.957   1.277  1.00  0.00     0.250 N   
ATOM     12  H11 UNL     1       0.320  -2.764   1.582  1.00  0.00     0.199 HD  
ATOM     13  H12 UNL     1       1.639  -1.844   1.948  1.00  0.00     0.199 HD  
BRANCH  11  14
ATOM     14  C6  UNL     1       1.486  -2.280  -0.046  1.00  0.00     0.164 C   
BRANCH  14  15
ATOM     15  C7  UNL     1       0.471  -2.521  -1.129  1.00  0.00    -0.002 A   
ATOM     16  C8  UNL     1       0.356  -1.613  -2.209  1.00  0.00     0.012 A   
ATOM     17  C12 UNL     1      -0.386  -3.634  -1.067  1.00  0.00     0.045 A   
ATOM     18  C9  UNL     1      -0.605  -1.802  -3.209  1.00  0.00     0.037 A   
ATOM     19  C11 UNL     1      -1.324  -3.788  -2.067  1.00  0.00     0.109 A   
ATOM     20  C10 UNL     1      -1.431  -2.898  -3.107  1.00  0.00     0.108 A   
ATOM     21  O1  UNL     1      -2.231  -4.796  -2.150  1.00  0.00    -0.316 OA  
ATOM     22  O2  UNL     1      -2.418  -3.235  -3.978  1.00  0.00    -0.316 OA  
ATOM     23  C13 UNL     1      -2.899  -4.463  -3.389  1.00  0.00     0.337 C   
ENDBRANCH  14  15
ENDBRANCH  11  14
ENDBRANCH   6  11
ENDBRANCH   1   6
BRANCH   3  24
ATOM     24  C16 UNL     1       2.360   3.660   0.263  1.00  0.00     0.058 A   
ATOM     25  C17 UNL     1       3.650   4.142   0.530  1.00  0.00     0.026 A   
ATOM     26  C22 UNL     1       1.461   4.462  -0.451  1.00  0.00     0.026 A   
ATOM     27  C18 UNL     1       4.037   5.407   0.079  1.00  0.00     0.008 A   
ATOM     28  C21 UNL     1       1.857   5.726  -0.898  1.00  0.00     0.008 A   
ATOM     29  C19 UNL     1       3.150   6.208  -0.653  1.00  0.00    -0.023 A   
BRANCH  29  30
ATOM     30  C20 UNL     1       3.573   7.583  -1.105  1.00  0.00     0.191 C   
BRANCH  30  31
ATOM     31  O3  UNL     1       2.939   7.921  -2.332  1.00  0.00    -0.392 OA  
ATOM     32  H25 UNL     1       3.288   8.790  -2.593  1.00  0.00     0.211 HD  
ENDBRANCH  30  31
ENDBRANCH  29  30
ENDBRANCH   3  24
TORSDOF 8
