REMARK SMILES CC(C)Cn1nccc1Cn1cc([C@@H]([NH2+]Cc2ccc3c(c2)OCO3)C2CCCCC2)nn1
REMARK SMILES IDX 11 1 12 2 13 3 32 4 33 5 10 7 9 8 5 9 6 10 7 11 8 12 4 13
REMARK SMILES IDX 2 14 1 15 3 16 14 17 15 18 16 21 17 22 18 23 22 24 19 25
REMARK SMILES IDX 21 26 20 27 23 28 25 29 24 30 26 31 27 32 31 33 28 34 30 35
REMARK SMILES IDX 29 36
REMARK H PARENT 12 6 15 19 15 20
ROOT
ATOM     1   N3  UNL     1       0.866  -2.071   0.104  1.00  0.00    -0.206 N   
ATOM     2   C9  UNL     1       0.736  -0.850   0.710  1.00  0.00     0.046 A   
ATOM     3   C10 UNL     1       0.200  -1.148   1.944  1.00  0.00     0.127 A   
ATOM     4   N5  UNL     1       0.016  -2.503   2.041  1.00  0.00    -0.132 NA  
ATOM     5   N6  UNL     1       0.431  -3.057   0.914  1.00  0.00    -0.076 NA  
ATOM     6   H14 UNL     1       1.009   0.074   0.221  1.00  0.00     0.083 HD  
ENDROOT
BRANCH   1   7
ATOM     7   C8  UNL     1       1.421  -2.373  -1.208  1.00  0.00     0.187 C   
BRANCH   7   8
ATOM     8   C7  UNL     1       0.474  -1.976  -2.287  1.00  0.00     0.049 A   
ATOM     9   N1  UNL     1       0.652  -0.910  -3.136  1.00  0.00    -0.228 N   
ATOM     10  N2  UNL     1      -0.382  -0.733  -3.978  1.00  0.00    -0.190 NA  
ATOM     11  C5  UNL     1      -1.192  -1.760  -3.725  1.00  0.00     0.133 A   
ATOM     12  C6  UNL     1      -0.715  -2.563  -2.680  1.00  0.00     0.044 A   
BRANCH   9  13
ATOM     13  C4  UNL     1       1.761   0.028  -3.201  1.00  0.00     0.135 C   
BRANCH  13  14
ATOM     14  C2  UNL     1       2.987  -0.513  -3.954  1.00  0.00     0.002 C   
ATOM     15  C1  UNL     1       4.163   0.451  -3.787  1.00  0.00     0.009 C   
ATOM     16  C3  UNL     1       2.700  -0.727  -5.442  1.00  0.00     0.009 C   
ENDBRANCH  13  14
ENDBRANCH   9  13
ENDBRANCH   7   8
ENDBRANCH   1   7
BRANCH   3  17
ATOM     17  C11 UNL     1      -0.251  -0.271   3.069  1.00  0.00     0.117 C   
BRANCH  17  18
ATOM     18  N4  UNL     1      -1.568  -0.831   3.584  1.00  0.00     0.249 N   
ATOM     19  H16 UNL     1      -1.631  -1.792   3.208  1.00  0.00     0.199 HD  
ATOM     20  H17 UNL     1      -1.548  -0.958   4.599  1.00  0.00     0.199 HD  
BRANCH  18  21
ATOM     21  C12 UNL     1      -2.798  -0.094   3.189  1.00  0.00     0.164 C   
BRANCH  21  22
ATOM     22  C13 UNL     1      -3.071  -0.140   1.712  1.00  0.00    -0.002 A   
ATOM     23  C14 UNL     1      -3.561  -1.326   1.114  1.00  0.00     0.012 A   
ATOM     24  C18 UNL     1      -2.814   0.983   0.907  1.00  0.00     0.045 A   
ATOM     25  C15 UNL     1      -3.802  -1.392  -0.263  1.00  0.00     0.037 A   
ATOM     26  C17 UNL     1      -3.053   0.881  -0.448  1.00  0.00     0.109 A   
ATOM     27  C16 UNL     1      -3.541  -0.270  -1.016  1.00  0.00     0.108 A   
ATOM     28  O1  UNL     1      -2.847   1.866  -1.361  1.00  0.00    -0.316 OA  
ATOM     29  O2  UNL     1      -3.724  -0.150  -2.356  1.00  0.00    -0.316 OA  
ATOM     30  C19 UNL     1      -3.279   1.206  -2.576  1.00  0.00     0.337 C   
ENDBRANCH  21  22
ENDBRANCH  18  21
ENDBRANCH  17  18
BRANCH  17  31
ATOM     31  C20 UNL     1       0.765  -0.209   4.247  1.00  0.00     0.043 C   
ATOM     32  C21 UNL     1       0.317   0.742   5.382  1.00  0.00     0.010 C   
ATOM     33  C25 UNL     1       2.184   0.212   3.803  1.00  0.00     0.010 C   
ATOM     34  C22 UNL     1       0.388   2.218   4.989  1.00  0.00     0.001 C   
ATOM     35  C24 UNL     1       2.264   1.677   3.380  1.00  0.00     0.001 C   
ATOM     36  C23 UNL     1       1.777   2.605   4.489  1.00  0.00     0.000 C   
ENDBRANCH  17  31
ENDBRANCH   3  17
TORSDOF 9
