REMARK SMILES CC(C)C[C@H]([NH2+]Cc1ccc2c(c1)OCO2)c1cn(-c2ccc(S(N)(=O)=O)cc2)nn1
REMARK SMILES IDX 17 1 18 2 19 3 30 4 31 5 5 6 4 7 2 8 1 9 3 10 6 11 7 14 8 15
REMARK SMILES IDX 9 16 13 17 10 18 12 19 11 20 14 21 16 22 15 23 20 24 21 25
REMARK SMILES IDX 29 26 22 27 28 28 23 29 24 30 26 31 27 32 25 33
REMARK H PARENT 6 12 6 13 25 34 25 35
ROOT
ATOM     1   C14 UNL     1      -0.504   0.069  -1.606  1.00  0.00     0.127 A   
ATOM     2   C15 UNL     1      -1.214   0.098  -0.426  1.00  0.00     0.135 A   
ATOM     3   N2  UNL     1      -0.889  -1.083   0.212  1.00  0.00    -0.181 N   
ATOM     4   N4  UNL     1      -0.091  -1.817  -0.606  1.00  0.00    -0.071 NA  
ATOM     5   N5  UNL     1       0.159  -1.120  -1.702  1.00  0.00    -0.131 NA  
ENDROOT
BRANCH   1   6
ATOM     6   C5  UNL     1      -0.285   1.114  -2.649  1.00  0.00     0.114 C   
BRANCH   6   7
ATOM     7   C4  UNL     1      -0.992   0.779  -3.976  1.00  0.00     0.064 C   
BRANCH   7   8
ATOM     8   C2  UNL     1      -2.531   0.688  -3.893  1.00  0.00    -0.012 C   
ATOM     9   C1  UNL     1      -3.169   2.002  -3.438  1.00  0.00     0.007 C   
ATOM     10  C3  UNL     1      -3.098   0.285  -5.257  1.00  0.00     0.007 C   
ENDBRANCH   7   8
ENDBRANCH   6   7
BRANCH   6  11
ATOM     11  N1  UNL     1       1.202   1.221  -2.946  1.00  0.00     0.249 N   
ATOM     12  H11 UNL     1       1.585   0.268  -2.841  1.00  0.00     0.199 HD  
ATOM     13  H12 UNL     1       1.351   1.479  -3.927  1.00  0.00     0.199 HD  
BRANCH  11  14
ATOM     14  C6  UNL     1       1.994   2.150  -2.083  1.00  0.00     0.164 C   
BRANCH  14  15
ATOM     15  C7  UNL     1       2.033   1.758  -0.632  1.00  0.00    -0.002 A   
ATOM     16  C8  UNL     1       2.792   0.638  -0.214  1.00  0.00     0.012 A   
ATOM     17  C12 UNL     1       1.270   2.465   0.315  1.00  0.00     0.045 A   
ATOM     18  C9  UNL     1       2.775   0.212   1.119  1.00  0.00     0.037 A   
ATOM     19  C11 UNL     1       1.269   2.013   1.619  1.00  0.00     0.109 A   
ATOM     20  C10 UNL     1       1.998   0.917   2.010  1.00  0.00     0.108 A   
ATOM     21  O1  UNL     1       0.555   2.552   2.642  1.00  0.00    -0.316 OA  
ATOM     22  O2  UNL     1       1.844   0.635   3.329  1.00  0.00    -0.316 OA  
ATOM     23  C13 UNL     1       0.967   1.704   3.740  1.00  0.00     0.337 C   
ENDBRANCH  14  15
ENDBRANCH  11  14
ENDBRANCH   6  11
ENDBRANCH   1   6
BRANCH   3  24
ATOM     24  C16 UNL     1      -1.232  -1.514   1.519  1.00  0.00     0.058 A   
ATOM     25  C17 UNL     1      -2.029  -0.717   2.355  1.00  0.00     0.038 A   
ATOM     26  C21 UNL     1      -0.737  -2.740   1.992  1.00  0.00     0.038 A   
ATOM     27  C18 UNL     1      -2.320  -1.142   3.655  1.00  0.00     0.140 A   
ATOM     28  C20 UNL     1      -1.027  -3.163   3.292  1.00  0.00     0.140 A   
ATOM     29  C19 UNL     1      -1.821  -2.363   4.116  1.00  0.00     0.338 A   
BRANCH  29  30
ATOM     30  S1  UNL     1      -2.132  -2.860   5.787  1.00  0.00    -0.114 S   
ATOM     31  O3  UNL     1      -2.448  -1.684   6.564  1.00  0.00    -0.479 OA  
ATOM     32  O4  UNL     1      -1.124  -3.811   6.189  1.00  0.00    -0.479 OA  
BRANCH  30  33
ATOM     33  N3  UNL     1      -3.562  -3.723   5.633  1.00  0.00    -0.094 NA  
ATOM     34  H23 UNL     1      -4.302  -3.273   6.174  1.00  0.00     0.263 HD  
ATOM     35  H24 UNL     1      -3.409  -4.698   5.897  1.00  0.00     0.263 HD  
ENDBRANCH  30  33
ENDBRANCH  29  30
ENDBRANCH   3  24
TORSDOF 9
