REMARK SMILES CC(C)(C)[C@H]([NH2+]Cc1ccc2c(c1)OCO2)c1cn(CCc2cn3ccccc3n2)nn1
REMARK SMILES IDX 17 1 18 2 19 3 31 4 32 5 5 7 2 8 1 9 3 10 4 11 6 12 7 15
REMARK SMILES IDX 8 16 9 17 13 18 10 19 12 20 11 21 14 22 16 23 15 24 20 25
REMARK SMILES IDX 21 26 22 27 23 28 30 29 24 30 29 31 25 32 28 33 26 34 27 35
REMARK H PARENT 18 6 6 13 6 14
ROOT
ATOM     1   C14 UNL     1       0.893  -1.933   0.552  1.00  0.00     0.127 A   
ATOM     2   C15 UNL     1      -0.334  -2.290   1.069  1.00  0.00     0.045 A   
ATOM     3   N2  UNL     1      -0.830  -3.146   0.126  1.00  0.00    -0.212 N   
ATOM     4   N5  UNL     1       0.118  -3.491  -0.760  1.00  0.00    -0.076 NA  
ATOM     5   N6  UNL     1       1.183  -2.746  -0.512  1.00  0.00    -0.132 NA  
ATOM     6   H20 UNL     1      -0.971  -1.874   1.836  1.00  0.00     0.083 HD  
ENDROOT
BRANCH   1   7
ATOM     7   C5  UNL     1       1.710  -0.699   0.760  1.00  0.00     0.120 C   
BRANCH   7   8
ATOM     8   C2  UNL     1       2.034  -0.284   2.233  1.00  0.00     0.010 C   
ATOM     9   C1  UNL     1       3.066   0.872   2.228  1.00  0.00     0.017 C   
ATOM     10  C3  UNL     1       2.687  -1.469   2.980  1.00  0.00     0.017 C   
ATOM     11  C4  UNL     1       0.809   0.190   3.039  1.00  0.00     0.017 C   
ENDBRANCH   7   8
BRANCH   7  12
ATOM     12  N1  UNL     1       1.026   0.426   0.012  1.00  0.00     0.250 N   
ATOM     13  H11 UNL     1       1.268   1.341   0.396  1.00  0.00     0.199 HD  
ATOM     14  H12 UNL     1      -0.004   0.323   0.118  1.00  0.00     0.199 HD  
BRANCH  12  15
ATOM     15  C6  UNL     1       1.270   0.438  -1.463  1.00  0.00     0.164 C   
BRANCH  15  16
ATOM     16  C7  UNL     1       0.739   1.708  -2.073  1.00  0.00    -0.002 A   
ATOM     17  C8  UNL     1      -0.498   1.710  -2.757  1.00  0.00     0.012 A   
ATOM     18  C12 UNL     1       1.443   2.913  -1.920  1.00  0.00     0.045 A   
ATOM     19  C9  UNL     1      -1.031   2.893  -3.281  1.00  0.00     0.037 A   
ATOM     20  C11 UNL     1       0.887   4.061  -2.446  1.00  0.00     0.109 A   
ATOM     21  C10 UNL     1      -0.315   4.053  -3.104  1.00  0.00     0.108 A   
ATOM     22  O1  UNL     1       1.430   5.306  -2.373  1.00  0.00    -0.316 OA  
ATOM     23  O2  UNL     1      -0.686   5.289  -3.527  1.00  0.00    -0.316 OA  
ATOM     24  C13 UNL     1       0.451   6.074  -3.109  1.00  0.00     0.337 C   
ENDBRANCH  15  16
ENDBRANCH  12  15
ENDBRANCH   7  12
ENDBRANCH   1   7
BRANCH   3  25
ATOM     25  C16 UNL     1      -2.232  -3.339  -0.192  1.00  0.00     0.140 C   
BRANCH  25  26
ATOM     26  C17 UNL     1      -2.756  -2.188  -1.056  1.00  0.00     0.079 C   
BRANCH  26  27
ATOM     27  C18 UNL     1      -2.953  -0.899  -0.311  1.00  0.00     0.059 A   
ATOM     28  C19 UNL     1      -4.108  -0.469   0.311  1.00  0.00     0.105 A   
ATOM     29  N4  UNL     1      -1.952   0.063  -0.194  1.00  0.00    -0.236 NA  
ATOM     30  N3  UNL     1      -3.849   0.796   0.768  1.00  0.00    -0.266 N   
ATOM     31  C24 UNL     1      -2.537   1.091   0.405  1.00  0.00     0.128 A   
ATOM     32  C20 UNL     1      -4.680   1.677   1.455  1.00  0.00     0.082 A   
ATOM     33  C23 UNL     1      -2.064   2.401   0.725  1.00  0.00     0.045 A   
ATOM     34  C21 UNL     1      -4.214   2.896   1.784  1.00  0.00     0.016 A   
ATOM     35  C22 UNL     1      -2.863   3.261   1.387  1.00  0.00     0.005 A   
ENDBRANCH  26  27
ENDBRANCH  25  26
ENDBRANCH   3  25
TORSDOF 8
