REMARK SMILES Cc1ccc([C@@H](O)Cn2cc([C@H](CC(C)C)[NH2+]Cc3ccc4c(c3)OCO4)nn2)s1
REMARK SMILES IDX 9 1 10 2 11 3 28 4 29 5 8 7 6 8 5 9 2 10 3 11 30 12 4 13
REMARK SMILES IDX 1 14 7 15 12 17 13 18 14 19 15 20 16 21 17 22 18 25 19 26
REMARK SMILES IDX 20 27 24 28 21 29 23 30 22 31 25 32 27 33 26 34
REMARK H PARENT 10 6 7 16 17 23 17 24
ROOT
ATOM     1   N1  UNL     1       3.014   1.237  -0.092  1.00  0.00    -0.209 N   
ATOM     2   C8  UNL     1       2.572   0.793  -1.308  1.00  0.00     0.045 A   
ATOM     3   C9  UNL     1       1.205   0.932  -1.230  1.00  0.00     0.127 A   
ATOM     4   N3  UNL     1       0.874   1.492  -0.023  1.00  0.00    -0.132 NA  
ATOM     5   N4  UNL     1       1.990   1.683   0.658  1.00  0.00    -0.076 NA  
ATOM     6   H10 UNL     1       3.244   0.381  -2.050  1.00  0.00     0.083 HD  
ENDROOT
BRANCH   1   7
ATOM     7   C7  UNL     1       4.359   1.225   0.444  1.00  0.00     0.171 C   
BRANCH   7   8
ATOM     8   C6  UNL     1       4.915  -0.180   0.713  1.00  0.00     0.170 C   
BRANCH   8   9
ATOM     9   C5  UNL     1       3.963  -1.111   1.420  1.00  0.00     0.020 A   
ATOM     10  C2  UNL     1       2.512  -2.174   3.124  1.00  0.00    -0.014 A   
ATOM     11  C3  UNL     1       2.486  -2.851   1.925  1.00  0.00     0.011 A   
ATOM     12  S1  UNL     1       3.553  -0.819   3.061  1.00  0.00    -0.097 S   
ATOM     13  C4  UNL     1       3.324  -2.244   0.946  1.00  0.00     0.014 A   
ATOM     14  C1  UNL     1       1.774  -2.485   4.383  1.00  0.00     0.052 C   
ENDBRANCH   8   9
BRANCH   8  15
ATOM     15  O1  UNL     1       5.280  -0.794  -0.530  1.00  0.00    -0.386 OA  
ATOM     16  H7  UNL     1       5.851  -1.552  -0.302  1.00  0.00     0.211 HD  
ENDBRANCH   8  15
ENDBRANCH   7   8
ENDBRANCH   1   7
BRANCH   3  17
ATOM     17  C10 UNL     1       0.105   0.481  -2.134  1.00  0.00     0.114 C   
BRANCH  17  18
ATOM     18  C11 UNL     1      -0.510   1.669  -2.896  1.00  0.00     0.064 C   
BRANCH  18  19
ATOM     19  C12 UNL     1      -1.639   1.334  -3.894  1.00  0.00    -0.012 C   
ATOM     20  C13 UNL     1      -1.220   0.294  -4.932  1.00  0.00     0.007 C   
ATOM     21  C14 UNL     1      -2.095   2.615  -4.600  1.00  0.00     0.007 C   
ENDBRANCH  18  19
ENDBRANCH  17  18
BRANCH  17  22
ATOM     22  N2  UNL     1      -0.953  -0.186  -1.294  1.00  0.00     0.249 N   
ATOM     23  H21 UNL     1      -1.089   0.425  -0.472  1.00  0.00     0.199 HD  
ATOM     24  H22 UNL     1      -1.860  -0.237  -1.763  1.00  0.00     0.199 HD  
BRANCH  22  25
ATOM     25  C15 UNL     1      -0.584  -1.536  -0.785  1.00  0.00     0.164 C   
BRANCH  25  26
ATOM     26  C16 UNL     1      -1.518  -1.974   0.304  1.00  0.00    -0.002 A   
ATOM     27  C17 UNL     1      -2.688  -2.709   0.002  1.00  0.00     0.012 A   
ATOM     28  C21 UNL     1      -1.249  -1.613   1.637  1.00  0.00     0.045 A   
ATOM     29  C18 UNL     1      -3.574  -3.092   1.014  1.00  0.00     0.037 A   
ATOM     30  C20 UNL     1      -2.141  -2.011   2.611  1.00  0.00     0.109 A   
ATOM     31  C19 UNL     1      -3.271  -2.729   2.308  1.00  0.00     0.108 A   
ATOM     32  O2  UNL     1      -2.027  -1.757   3.940  1.00  0.00    -0.316 OA  
ATOM     33  O3  UNL     1      -4.014  -3.015   3.409  1.00  0.00    -0.316 OA  
ATOM     34  C22 UNL     1      -3.218  -2.401   4.446  1.00  0.00     0.337 C   
ENDBRANCH  25  26
ENDBRANCH  22  25
ENDBRANCH  17  22
ENDBRANCH   3  17
TORSDOF 10
