REMARK SMILES Cc1ccc([C@H](O)Cn2cc([C@H](CC(C)C)[NH2+]Cc3ccc4c(c3)OCO4)nn2)s1
REMARK SMILES IDX 9 1 10 2 11 3 28 4 29 5 8 7 6 8 5 9 2 10 3 11 30 12 4 13
REMARK SMILES IDX 1 14 7 15 12 17 13 18 14 19 15 20 16 21 17 22 18 25 19 26
REMARK SMILES IDX 20 27 24 28 21 29 23 30 22 31 25 32 27 33 26 34
REMARK H PARENT 10 6 7 16 17 23 17 24
ROOT
ATOM     1   N1  UNL     1       1.695   0.892  -0.417  1.00  0.00    -0.209 N   
ATOM     2   C8  UNL     1       0.833  -0.138  -0.172  1.00  0.00     0.045 A   
ATOM     3   C9  UNL     1      -0.095   0.406   0.686  1.00  0.00     0.127 A   
ATOM     4   N3  UNL     1       0.240   1.710   0.945  1.00  0.00    -0.132 NA  
ATOM     5   N4  UNL     1       1.339   1.994   0.267  1.00  0.00    -0.076 NA  
ATOM     6   H10 UNL     1       0.958  -1.117  -0.614  1.00  0.00     0.083 HD  
ENDROOT
BRANCH   1   7
ATOM     7   C7  UNL     1       2.864   0.895  -1.265  1.00  0.00     0.171 C   
BRANCH   7   8
ATOM     8   C6  UNL     1       2.599   1.524  -2.633  1.00  0.00     0.170 C   
BRANCH   8   9
ATOM     9   C5  UNL     1       1.638   0.712  -3.460  1.00  0.00     0.020 A   
ATOM     10  C2  UNL     1      -0.387  -0.112  -4.615  1.00  0.00    -0.014 A   
ATOM     11  C3  UNL     1       0.683  -0.968  -4.766  1.00  0.00     0.011 A   
ATOM     12  S1  UNL     1       0.029   1.260  -3.685  1.00  0.00    -0.097 S   
ATOM     13  C4  UNL     1       1.851  -0.492  -4.104  1.00  0.00     0.014 A   
ATOM     14  C1  UNL     1      -1.766  -0.248  -5.163  1.00  0.00     0.052 C   
ENDBRANCH   8   9
BRANCH   8  15
ATOM     15  O1  UNL     1       3.831   1.565  -3.359  1.00  0.00    -0.386 OA  
ATOM     16  H7  UNL     1       3.634   1.958  -4.229  1.00  0.00     0.211 HD  
ENDBRANCH   8  15
ENDBRANCH   7   8
ENDBRANCH   1   7
BRANCH   3  17
ATOM     17  C10 UNL     1      -1.268  -0.195   1.381  1.00  0.00     0.114 C   
BRANCH  17  18
ATOM     18  C11 UNL     1      -2.610   0.287   0.797  1.00  0.00     0.064 C   
BRANCH  18  19
ATOM     19  C12 UNL     1      -2.844  -0.065  -0.688  1.00  0.00    -0.012 C   
ATOM     20  C13 UNL     1      -2.811  -1.571  -0.948  1.00  0.00     0.007 C   
ATOM     21  C14 UNL     1      -4.186   0.509  -1.151  1.00  0.00     0.007 C   
ENDBRANCH  18  19
ENDBRANCH  17  18
BRANCH  17  22
ATOM     22  N2  UNL     1      -1.238   0.216   2.844  1.00  0.00     0.249 N   
ATOM     23  H21 UNL     1      -2.187   0.388   3.188  1.00  0.00     0.199 HD  
ATOM     24  H22 UNL     1      -0.761   1.132   2.868  1.00  0.00     0.199 HD  
BRANCH  22  25
ATOM     25  C15 UNL     1      -0.539  -0.710   3.781  1.00  0.00     0.164 C   
BRANCH  25  26
ATOM     26  C16 UNL     1       0.911  -0.940   3.459  1.00  0.00    -0.002 A   
ATOM     27  C17 UNL     1       1.339  -2.183   2.933  1.00  0.00     0.012 A   
ATOM     28  C21 UNL     1       1.849   0.092   3.639  1.00  0.00     0.045 A   
ATOM     29  C18 UNL     1       2.674  -2.392   2.572  1.00  0.00     0.037 A   
ATOM     30  C20 UNL     1       3.158  -0.147   3.273  1.00  0.00     0.109 A   
ATOM     31  C19 UNL     1       3.558  -1.352   2.750  1.00  0.00     0.108 A   
ATOM     32  O2  UNL     1       4.180   0.742   3.369  1.00  0.00    -0.316 OA  
ATOM     33  O3  UNL     1       4.881  -1.371   2.444  1.00  0.00    -0.316 OA  
ATOM     34  C22 UNL     1       5.279  -0.047   2.862  1.00  0.00     0.337 C   
ENDBRANCH  25  26
ENDBRANCH  22  25
ENDBRANCH  17  22
ENDBRANCH   3  17
TORSDOF 10
