REMARK SMILES CC(C)[C@H]([NH2+]Cc1ccc2c(c1)OCO2)c1cn(Cc2ccnn2C(C)C)nn1
REMARK SMILES IDX 16 1 17 2 18 3 28 4 29 5 4 7 2 8 1 9 3 10 5 11 6 14 7 15
REMARK SMILES IDX 8 16 12 17 9 18 11 19 10 20 13 21 15 22 14 23 19 24 20 25
REMARK SMILES IDX 21 26 24 27 22 28 23 29 25 30 26 31 27 32
REMARK H PARENT 17 6 5 12 5 13
ROOT
ATOM     1   C13 UNL     1      -0.999  -1.691   0.172  1.00  0.00     0.127 A   
ATOM     2   C14 UNL     1       0.083  -1.914  -0.650  1.00  0.00     0.046 A   
ATOM     3   N2  UNL     1      -0.178  -1.145  -1.752  1.00  0.00    -0.206 N   
ATOM     4   N5  UNL     1      -1.358  -0.507  -1.625  1.00  0.00    -0.076 NA  
ATOM     5   N6  UNL     1      -1.860  -0.816  -0.442  1.00  0.00    -0.132 NA  
ATOM     6   H18 UNL     1       0.984  -2.502  -0.555  1.00  0.00     0.083 HD  
ENDROOT
BRANCH   1   7
ATOM     7   C4  UNL     1      -1.317  -2.184   1.546  1.00  0.00     0.117 C   
BRANCH   7   8
ATOM     8   C2  UNL     1      -2.166  -3.483   1.528  1.00  0.00     0.037 C   
ATOM     9   C1  UNL     1      -2.255  -4.113   2.923  1.00  0.00     0.014 C   
ATOM     10  C3  UNL     1      -3.575  -3.313   0.945  1.00  0.00     0.014 C   
ENDBRANCH   7   8
BRANCH   7  11
ATOM     11  N1  UNL     1      -2.018  -1.097   2.328  1.00  0.00     0.249 N   
ATOM     12  H9  UNL     1      -2.382  -0.433   1.625  1.00  0.00     0.199 HD  
ATOM     13  H10 UNL     1      -2.844  -1.460   2.810  1.00  0.00     0.199 HD  
BRANCH  11  14
ATOM     14  C5  UNL     1      -1.183  -0.342   3.302  1.00  0.00     0.164 C   
BRANCH  14  15
ATOM     15  C6  UNL     1      -0.073   0.452   2.673  1.00  0.00    -0.002 A   
ATOM     16  C7  UNL     1       1.269   0.008   2.764  1.00  0.00     0.012 A   
ATOM     17  C11 UNL     1      -0.358   1.643   1.982  1.00  0.00     0.045 A   
ATOM     18  C8  UNL     1       2.310   0.736   2.179  1.00  0.00     0.037 A   
ATOM     19  C10 UNL     1       0.693   2.342   1.427  1.00  0.00     0.109 A   
ATOM     20  C9  UNL     1       1.990   1.901   1.520  1.00  0.00     0.108 A   
ATOM     21  O1  UNL     1       0.591   3.523   0.762  1.00  0.00    -0.316 OA  
ATOM     22  O2  UNL     1       2.870   2.743   0.919  1.00  0.00    -0.316 OA  
ATOM     23  C12 UNL     1       1.982   3.786   0.459  1.00  0.00     0.337 C   
ENDBRANCH  14  15
ENDBRANCH  11  14
ENDBRANCH   7  11
ENDBRANCH   1   7
BRANCH   3  24
ATOM     24  C15 UNL     1       0.635  -0.983  -2.947  1.00  0.00     0.187 C   
BRANCH  24  25
ATOM     25  C16 UNL     1       1.585   0.151  -2.784  1.00  0.00     0.049 A   
ATOM     26  C17 UNL     1       2.904   0.143  -2.369  1.00  0.00     0.044 A   
ATOM     27  N4  UNL     1       1.285   1.472  -3.038  1.00  0.00    -0.225 N   
ATOM     28  C18 UNL     1       3.304   1.486  -2.389  1.00  0.00     0.133 A   
ATOM     29  N3  UNL     1       2.323   2.295  -2.781  1.00  0.00    -0.190 NA  
BRANCH  27  30
ATOM     30  C19 UNL     1       0.039   2.052  -3.541  1.00  0.00     0.092 C   
ATOM     31  C20 UNL     1       0.259   2.798  -4.858  1.00  0.00     0.030 C   
ATOM     32  C21 UNL     1      -0.616   2.957  -2.498  1.00  0.00     0.030 C   
ENDBRANCH  27  30
ENDBRANCH  24  25
ENDBRANCH   3  24
TORSDOF 8
