REMARK SMILES Cc1ccc([C@H](CO)n2cc([C@@H]([NH2+]Cc3ccc4c(c3)OCO4)C(C)C)nn2)c(F)c1
REMARK SMILES IDX 9 1 10 2 11 3 27 4 28 5 6 7 5 8 2 9 3 10 31 11 4 12 29 13
REMARK SMILES IDX 1 14 30 15 7 16 8 17 12 19 13 20 14 23 15 24 16 25 20 26
REMARK SMILES IDX 17 27 19 28 18 29 21 30 23 31 22 32 24 33 25 34 26 35
REMARK H PARENT 10 6 8 18 13 21 13 22
ROOT
ATOM     1   N1  UNL     1      -0.618  -0.464  -2.234  1.00  0.00    -0.202 N   
ATOM     2   C8  UNL     1       0.479   0.140  -1.677  1.00  0.00     0.046 A   
ATOM     3   C9  UNL     1       0.325  -0.062  -0.324  1.00  0.00     0.127 A   
ATOM     4   N3  UNL     1      -0.830  -0.765  -0.101  1.00  0.00    -0.132 NA  
ATOM     5   N4  UNL     1      -1.399  -1.002  -1.269  1.00  0.00    -0.075 NA  
ATOM     6   H10 UNL     1       1.240   0.627  -2.272  1.00  0.00     0.083 HD  
ENDROOT
BRANCH   1   7
ATOM     7   C6  UNL     1      -0.993  -0.606  -3.642  1.00  0.00     0.158 C   
BRANCH   7   8
ATOM     8   C5  UNL     1      -0.276  -1.798  -4.250  1.00  0.00     0.013 A   
ATOM     9   C2  UNL     1       1.039  -4.044  -5.360  1.00  0.00    -0.048 A   
ATOM     10  C3  UNL     1      -0.304  -4.123  -4.974  1.00  0.00     0.004 A   
ATOM     11  C23 UNL     1       1.718  -2.834  -5.197  1.00  0.00     0.043 A   
ATOM     12  C4  UNL     1      -0.953  -3.016  -4.417  1.00  0.00     0.009 A   
ATOM     13  C22 UNL     1       1.066  -1.737  -4.640  1.00  0.00     0.128 A   
ATOM     14  C1  UNL     1       1.718  -5.224  -5.991  1.00  0.00     0.044 C   
ATOM     15  F1  UNL     1       1.760  -0.603  -4.475  1.00  0.00    -0.207 F   
ENDBRANCH   7   8
BRANCH   7  16
ATOM     16  C7  UNL     1      -0.829   0.697  -4.449  1.00  0.00     0.186 C   
BRANCH  16  17
ATOM     17  O1  UNL     1      -1.704   1.713  -3.956  1.00  0.00    -0.394 OA  
ATOM     18  H9  UNL     1      -1.705   2.436  -4.610  1.00  0.00     0.210 HD  
ENDBRANCH  16  17
ENDBRANCH   7  16
ENDBRANCH   1   7
BRANCH   3  19
ATOM     19  C10 UNL     1       1.162   0.364   0.839  1.00  0.00     0.117 C   
BRANCH  19  20
ATOM     20  N2  UNL     1       0.329   0.401   2.094  1.00  0.00     0.249 N   
ATOM     21  H12 UNL     1       0.902   0.349   2.939  1.00  0.00     0.199 HD  
ATOM     22  H13 UNL     1      -0.257  -0.447   2.086  1.00  0.00     0.199 HD  
BRANCH  20  23
ATOM     23  C11 UNL     1      -0.591   1.567   2.205  1.00  0.00     0.164 C   
BRANCH  23  24
ATOM     24  C12 UNL     1      -1.435   1.454   3.444  1.00  0.00    -0.002 A   
ATOM     25  C13 UNL     1      -2.720   0.865   3.377  1.00  0.00     0.012 A   
ATOM     26  C17 UNL     1      -0.934   1.884   4.685  1.00  0.00     0.045 A   
ATOM     27  C14 UNL     1      -3.505   0.720   4.527  1.00  0.00     0.037 A   
ATOM     28  C16 UNL     1      -1.732   1.722   5.799  1.00  0.00     0.109 A   
ATOM     29  C15 UNL     1      -2.982   1.159   5.723  1.00  0.00     0.108 A   
ATOM     30  O2  UNL     1      -1.398   2.082   7.066  1.00  0.00    -0.316 OA  
ATOM     31  O3  UNL     1      -3.597   1.100   6.932  1.00  0.00    -0.316 OA  
ATOM     32  C18 UNL     1      -2.598   1.704   7.781  1.00  0.00     0.337 C   
ENDBRANCH  23  24
ENDBRANCH  20  23
ENDBRANCH  19  20
BRANCH  19  33
ATOM     33  C19 UNL     1       2.398  -0.551   1.040  1.00  0.00     0.037 C   
ATOM     34  C20 UNL     1       2.050  -1.982   1.469  1.00  0.00     0.014 C   
ATOM     35  C21 UNL     1       3.400   0.057   2.031  1.00  0.00     0.014 C   
ENDBRANCH  19  33
ENDBRANCH   3  19
TORSDOF 9
