REMARK SMILES Cc1ccc([C@@H](CO)n2cc([C@@H]([NH2+]Cc3ccc4c(c3)OCO4)C(C)C)nn2)c(F)c1
REMARK SMILES IDX 9 1 10 2 11 3 27 4 28 5 6 7 5 8 2 9 3 10 31 11 4 12 29 13
REMARK SMILES IDX 1 14 30 15 7 16 8 17 12 19 13 20 14 23 15 24 16 25 20 26
REMARK SMILES IDX 17 27 19 28 18 29 21 30 23 31 22 32 24 33 25 34 26 35
REMARK H PARENT 10 6 8 18 13 21 13 22
ROOT
ATOM     1   N1  UNL     1       0.454   1.703   2.224  1.00  0.00    -0.202 N   
ATOM     2   C8  UNL     1       0.235   0.625   1.407  1.00  0.00     0.046 A   
ATOM     3   C9  UNL     1       1.486   0.085   1.220  1.00  0.00     0.127 A   
ATOM     4   N3  UNL     1       2.406   0.826   1.917  1.00  0.00    -0.132 NA  
ATOM     5   N4  UNL     1       1.766   1.810   2.525  1.00  0.00    -0.075 NA  
ATOM     6   H10 UNL     1      -0.752   0.363   1.050  1.00  0.00     0.083 HD  
ENDROOT
BRANCH   1   7
ATOM     7   C6  UNL     1      -0.504   2.679   2.747  1.00  0.00     0.158 C   
BRANCH   7   8
ATOM     8   C5  UNL     1      -1.454   3.155   1.657  1.00  0.00     0.013 A   
ATOM     9   C2  UNL     1      -3.110   4.129  -0.427  1.00  0.00    -0.048 A   
ATOM     10  C3  UNL     1      -3.635   3.319   0.585  1.00  0.00     0.004 A   
ATOM     11  C23 UNL     1      -1.747   4.431  -0.409  1.00  0.00     0.043 A   
ATOM     12  C4  UNL     1      -2.820   2.841   1.619  1.00  0.00     0.009 A   
ATOM     13  C22 UNL     1      -0.943   3.950   0.621  1.00  0.00     0.128 A   
ATOM     14  C1  UNL     1      -3.987   4.620  -1.541  1.00  0.00     0.044 C   
ATOM     15  F1  UNL     1       0.364   4.252   0.604  1.00  0.00    -0.207 F   
ENDBRANCH   7   8
BRANCH   7  16
ATOM     16  C7  UNL     1      -1.126   2.164   4.060  1.00  0.00     0.186 C   
BRANCH  16  17
ATOM     17  O1  UNL     1      -1.823   0.927   3.892  1.00  0.00    -0.394 OA  
ATOM     18  H9  UNL     1      -2.160   0.671   4.771  1.00  0.00     0.210 HD  
ENDBRANCH  16  17
ENDBRANCH   7  16
ENDBRANCH   1   7
BRANCH   3  19
ATOM     19  C10 UNL     1       1.947  -1.052   0.371  1.00  0.00     0.117 C   
BRANCH  19  20
ATOM     20  N2  UNL     1       3.311  -0.741  -0.212  1.00  0.00     0.249 N   
ATOM     21  H12 UNL     1       3.900  -0.446   0.579  1.00  0.00     0.199 HD  
ATOM     22  H13 UNL     1       3.729  -1.585  -0.612  1.00  0.00     0.199 HD  
BRANCH  20  23
ATOM     23  C11 UNL     1       3.363   0.364  -1.217  1.00  0.00     0.164 C   
BRANCH  23  24
ATOM     24  C12 UNL     1       2.635   0.036  -2.490  1.00  0.00    -0.002 A   
ATOM     25  C13 UNL     1       1.390   0.646  -2.777  1.00  0.00     0.012 A   
ATOM     26  C17 UNL     1       3.168  -0.904  -3.390  1.00  0.00     0.045 A   
ATOM     27  C14 UNL     1       0.682   0.325  -3.940  1.00  0.00     0.037 A   
ATOM     28  C16 UNL     1       2.446  -1.194  -4.529  1.00  0.00     0.109 A   
ATOM     29  C15 UNL     1       1.238  -0.599  -4.796  1.00  0.00     0.108 A   
ATOM     30  O2  UNL     1       2.817  -2.075  -5.495  1.00  0.00    -0.316 OA  
ATOM     31  O3  UNL     1       0.697  -1.028  -5.965  1.00  0.00    -0.316 OA  
ATOM     32  C18 UNL     1       1.709  -1.954  -6.416  1.00  0.00     0.337 C   
ENDBRANCH  23  24
ENDBRANCH  20  23
ENDBRANCH  19  20
BRANCH  19  33
ATOM     33  C19 UNL     1       2.030  -2.411   1.113  1.00  0.00     0.037 C   
ATOM     34  C20 UNL     1       0.642  -2.900   1.546  1.00  0.00     0.014 C   
ATOM     35  C21 UNL     1       2.978  -2.421   2.317  1.00  0.00     0.014 C   
ENDBRANCH  19  33
ENDBRANCH   3  19
TORSDOF 9
