REMARK SMILES CC(C)C[C@H]([NH2+]Cc1ccc2c(c1)OCO2)c1cn(Cc2cnoc2C2CC2)nn1
REMARK SMILES IDX 17 1 18 2 19 3 29 4 30 5 5 7 4 8 2 9 1 10 3 11 6 12 7 15
REMARK SMILES IDX 8 16 9 17 13 18 10 19 12 20 11 21 14 22 16 23 15 24 20 25
REMARK SMILES IDX 21 26 22 27 25 28 23 29 24 30 26 31 27 32 28 33
REMARK H PARENT 18 6 6 13 6 14
ROOT
ATOM     1   C14 UNL     1       0.532  -0.422   0.561  1.00  0.00     0.127 A   
ATOM     2   C15 UNL     1       1.544  -0.723   1.447  1.00  0.00     0.046 A   
ATOM     3   N2  UNL     1       1.199  -0.046   2.585  1.00  0.00    -0.208 N   
ATOM     4   N4  UNL     1       0.001   0.554   2.440  1.00  0.00    -0.076 NA  
ATOM     5   N5  UNL     1      -0.407   0.348   1.199  1.00  0.00    -0.132 NA  
ATOM     6   H20 UNL     1       2.461  -1.289   1.366  1.00  0.00     0.083 HD  
ENDROOT
BRANCH   1   7
ATOM     7   C5  UNL     1       0.320  -0.805  -0.867  1.00  0.00     0.114 C   
BRANCH   7   8
ATOM     8   C4  UNL     1       0.913   0.224  -1.850  1.00  0.00     0.064 C   
BRANCH   8   9
ATOM     9   C2  UNL     1       2.447   0.392  -1.791  1.00  0.00    -0.012 C   
ATOM     10  C1  UNL     1       2.884   1.484  -2.773  1.00  0.00     0.007 C   
ATOM     11  C3  UNL     1       3.189  -0.908  -2.105  1.00  0.00     0.007 C   
ENDBRANCH   8   9
ENDBRANCH   7   8
BRANCH   7  12
ATOM     12  N1  UNL     1      -1.160  -0.886  -1.163  1.00  0.00     0.249 N   
ATOM     13  H11 UNL     1      -1.590  -0.037  -0.764  1.00  0.00     0.199 HD  
ATOM     14  H12 UNL     1      -1.344  -0.853  -2.171  1.00  0.00     0.199 HD  
BRANCH  12  15
ATOM     15  C6  UNL     1      -1.867  -2.058  -0.578  1.00  0.00     0.164 C   
BRANCH  15  16
ATOM     16  C7  UNL     1      -3.336  -1.991  -0.883  1.00  0.00    -0.002 A   
ATOM     17  C8  UNL     1      -4.202  -1.252  -0.042  1.00  0.00     0.012 A   
ATOM     18  C12 UNL     1      -3.850  -2.612  -2.034  1.00  0.00     0.045 A   
ATOM     19  C9  UNL     1      -5.566  -1.142  -0.334  1.00  0.00     0.037 A   
ATOM     20  C11 UNL     1      -5.199  -2.484  -2.292  1.00  0.00     0.109 A   
ATOM     21  C10 UNL     1      -6.033  -1.770  -1.467  1.00  0.00     0.108 A   
ATOM     22  O1  UNL     1      -5.854  -3.019  -3.356  1.00  0.00    -0.316 OA  
ATOM     23  O2  UNL     1      -7.318  -1.767  -1.906  1.00  0.00    -0.316 OA  
ATOM     24  C13 UNL     1      -7.207  -2.578  -3.095  1.00  0.00     0.337 C   
ENDBRANCH  15  16
ENDBRANCH  12  15
ENDBRANCH   7  12
ENDBRANCH   1   7
BRANCH   3  25
ATOM     25  C16 UNL     1       1.957   0.095   3.819  1.00  0.00     0.173 C   
BRANCH  25  26
ATOM     26  C17 UNL     1       2.940   1.195   3.689  1.00  0.00     0.021 A   
ATOM     27  C18 UNL     1       2.672   2.582   3.600  1.00  0.00     0.149 A   
ATOM     28  C19 UNL     1       4.316   1.135   3.625  1.00  0.00     0.094 A   
ATOM     29  N3  UNL     1       3.784   3.305   3.473  1.00  0.00    -0.137 NA  
ATOM     30  O3  UNL     1       4.821   2.392   3.499  1.00  0.00    -0.218 OA  
BRANCH  28  31
ATOM     31  C20 UNL     1       5.189  -0.145   3.694  1.00  0.00     0.046 C   
ATOM     32  C21 UNL     1       6.528  -0.153   3.006  1.00  0.00     0.011 C   
ATOM     33  C22 UNL     1       5.394  -0.957   2.441  1.00  0.00     0.011 C   
ENDBRANCH  28  31
ENDBRANCH  25  26
ENDBRANCH   3  25
TORSDOF 9
