REMARK SMILES Cc1ccc([C@H](CO)n2cc([C@@H]([NH2+]Cc3ccc4c(c3)OCO4)C(C)C)nn2)cc1
REMARK SMILES IDX 9 1 10 2 11 3 27 4 28 5 6 7 5 8 2 9 3 10 30 11 4 12 29 13
REMARK SMILES IDX 1 14 7 15 8 16 12 18 13 19 14 22 15 23 16 24 20 25 17 26
REMARK SMILES IDX 19 27 18 28 21 29 23 30 22 31 24 32 25 33 26 34
REMARK H PARENT 10 6 8 17 13 20 13 21
ROOT
ATOM     1   N1  UNL     1      -2.137   0.108  -1.619  1.00  0.00    -0.202 N   
ATOM     2   C8  UNL     1      -1.295   1.056  -1.100  1.00  0.00     0.046 A   
ATOM     3   C9  UNL     1      -0.207   0.339  -0.661  1.00  0.00     0.127 A   
ATOM     4   N3  UNL     1      -0.424  -0.995  -0.895  1.00  0.00    -0.132 NA  
ATOM     5   N4  UNL     1      -1.610  -1.127  -1.466  1.00  0.00    -0.075 NA  
ATOM     6   H10 UNL     1      -1.544   2.109  -1.107  1.00  0.00     0.083 HD  
ENDROOT
BRANCH   1   7
ATOM     7   C6  UNL     1      -3.429   0.285  -2.281  1.00  0.00     0.155 C   
BRANCH   7   8
ATOM     8   C5  UNL     1      -3.311   1.290  -3.422  1.00  0.00    -0.023 A   
ATOM     9   C2  UNL     1      -3.018   3.082  -5.593  1.00  0.00    -0.051 A   
ATOM     10  C3  UNL     1      -2.577   1.761  -5.702  1.00  0.00     0.004 A   
ATOM     11  C23 UNL     1      -3.583   3.509  -4.388  1.00  0.00     0.004 A   
ATOM     12  C4  UNL     1      -2.725   0.875  -4.632  1.00  0.00     0.006 A   
ATOM     13  C22 UNL     1      -3.732   2.623  -3.316  1.00  0.00     0.006 A   
ATOM     14  C1  UNL     1      -2.835   4.040  -6.734  1.00  0.00     0.044 C   
ENDBRANCH   7   8
BRANCH   7  15
ATOM     15  C7  UNL     1      -4.559   0.507  -1.256  1.00  0.00     0.185 C   
BRANCH  15  16
ATOM     16  O1  UNL     1      -4.322   1.614  -0.384  1.00  0.00    -0.394 OA  
ATOM     17  H9  UNL     1      -5.124   1.719   0.162  1.00  0.00     0.210 HD  
ENDBRANCH  15  16
ENDBRANCH   7  15
ENDBRANCH   1   7
BRANCH   3  18
ATOM     18  C10 UNL     1       1.058   0.784  -0.001  1.00  0.00     0.117 C   
BRANCH  18  19
ATOM     19  N2  UNL     1       1.679  -0.351   0.767  1.00  0.00     0.249 N   
ATOM     20  H12 UNL     1       2.675  -0.200   0.946  1.00  0.00     0.199 HD  
ATOM     21  H13 UNL     1       1.615  -1.184   0.162  1.00  0.00     0.199 HD  
BRANCH  19  22
ATOM     22  C11 UNL     1       1.002  -0.693   2.049  1.00  0.00     0.164 C   
BRANCH  22  23
ATOM     23  C12 UNL     1       1.683  -1.861   2.704  1.00  0.00    -0.002 A   
ATOM     24  C13 UNL     1       2.688  -1.653   3.678  1.00  0.00     0.012 A   
ATOM     25  C17 UNL     1       1.360  -3.171   2.310  1.00  0.00     0.045 A   
ATOM     26  C14 UNL     1       3.357  -2.735   4.261  1.00  0.00     0.037 A   
ATOM     27  C16 UNL     1       2.039  -4.214   2.904  1.00  0.00     0.109 A   
ATOM     28  C15 UNL     1       3.010  -4.003   3.852  1.00  0.00     0.108 A   
ATOM     29  O2  UNL     1       1.852  -5.533   2.638  1.00  0.00    -0.316 OA  
ATOM     30  O3  UNL     1       3.554  -5.162   4.304  1.00  0.00    -0.316 OA  
ATOM     31  C18 UNL     1       2.801  -6.135   3.548  1.00  0.00     0.337 C   
ENDBRANCH  22  23
ENDBRANCH  19  22
ENDBRANCH  18  19
BRANCH  18  32
ATOM     32  C19 UNL     1       2.075   1.365  -1.018  1.00  0.00     0.037 C   
ATOM     33  C20 UNL     1       2.647   0.325  -1.988  1.00  0.00     0.014 C   
ATOM     34  C21 UNL     1       3.221   2.103  -0.317  1.00  0.00     0.014 C   
ENDBRANCH  18  32
ENDBRANCH   3  18
TORSDOF 9
