REMARK SMILES Cc1ccc([C@@H](CO)n2cc([C@@H]([NH2+]Cc3ccc4c(c3)OCO4)C(C)C)nn2)cc1
REMARK SMILES IDX 9 1 10 2 11 3 27 4 28 5 6 7 5 8 2 9 3 10 30 11 4 12 29 13
REMARK SMILES IDX 1 14 7 15 8 16 12 18 13 19 14 22 15 23 16 24 20 25 17 26
REMARK SMILES IDX 19 27 18 28 21 29 23 30 22 31 24 32 25 33 26 34
REMARK H PARENT 10 6 8 17 13 20 13 21
ROOT
ATOM     1   N1  UNL     1       3.118   0.850  -0.078  1.00  0.00    -0.202 N   
ATOM     2   C8  UNL     1       2.071   0.713  -0.949  1.00  0.00     0.046 A   
ATOM     3   C9  UNL     1       1.171   1.673  -0.550  1.00  0.00     0.127 A   
ATOM     4   N3  UNL     1       1.681   2.348   0.529  1.00  0.00    -0.132 NA  
ATOM     5   N4  UNL     1       2.867   1.835   0.813  1.00  0.00    -0.075 NA  
ATOM     6   H10 UNL     1       2.070  -0.031  -1.734  1.00  0.00     0.083 HD  
ENDROOT
BRANCH   1   7
ATOM     7   C6  UNL     1       4.344   0.059   0.020  1.00  0.00     0.155 C   
BRANCH   7   8
ATOM     8   C5  UNL     1       4.006  -1.404   0.286  1.00  0.00    -0.023 A   
ATOM     9   C2  UNL     1       3.329  -4.086   0.883  1.00  0.00    -0.051 A   
ATOM     10  C3  UNL     1       3.602  -3.695  -0.431  1.00  0.00     0.004 A   
ATOM     11  C23 UNL     1       3.383  -3.128   1.899  1.00  0.00     0.004 A   
ATOM     12  C4  UNL     1       3.937  -2.370  -0.727  1.00  0.00     0.006 A   
ATOM     13  C22 UNL     1       3.716  -1.804   1.604  1.00  0.00     0.006 A   
ATOM     14  C1  UNL     1       2.977  -5.513   1.184  1.00  0.00     0.044 C   
ENDBRANCH   7   8
BRANCH   7  15
ATOM     15  C7  UNL     1       5.317   0.360  -1.140  1.00  0.00     0.185 C   
BRANCH  15  16
ATOM     16  O1  UNL     1       4.747   0.147  -2.432  1.00  0.00    -0.394 OA  
ATOM     17  H9  UNL     1       5.453   0.320  -3.083  1.00  0.00     0.210 HD  
ENDBRANCH  15  16
ENDBRANCH   7  15
ENDBRANCH   1   7
BRANCH   3  18
ATOM     18  C10 UNL     1      -0.193   2.004  -1.060  1.00  0.00     0.117 C   
BRANCH  18  19
ATOM     19  N2  UNL     1      -1.069   2.502   0.066  1.00  0.00     0.249 N   
ATOM     20  H12 UNL     1      -1.908   2.958  -0.300  1.00  0.00     0.199 HD  
ATOM     21  H13 UNL     1      -0.520   3.219   0.560  1.00  0.00     0.199 HD  
BRANCH  19  22
ATOM     22  C11 UNL     1      -1.471   1.484   1.083  1.00  0.00     0.164 C   
BRANCH  22  23
ATOM     23  C12 UNL     1      -2.387   0.429   0.526  1.00  0.00    -0.002 A   
ATOM     24  C13 UNL     1      -1.918  -0.893   0.335  1.00  0.00     0.012 A   
ATOM     25  C17 UNL     1      -3.705   0.755   0.163  1.00  0.00     0.045 A   
ATOM     26  C14 UNL     1      -2.745  -1.876  -0.217  1.00  0.00     0.037 A   
ATOM     27  C16 UNL     1      -4.493  -0.238  -0.380  1.00  0.00     0.109 A   
ATOM     28  C15 UNL     1      -4.028  -1.516  -0.565  1.00  0.00     0.108 A   
ATOM     29  O2  UNL     1      -5.780  -0.089  -0.789  1.00  0.00    -0.316 OA  
ATOM     30  O3  UNL     1      -4.963  -2.334  -1.114  1.00  0.00    -0.316 OA  
ATOM     31  C18 UNL     1      -6.086  -1.433  -1.229  1.00  0.00     0.337 C   
ENDBRANCH  22  23
ENDBRANCH  19  22
ENDBRANCH  18  19
BRANCH  18  32
ATOM     32  C19 UNL     1      -0.155   3.041  -2.214  1.00  0.00     0.037 C   
ATOM     33  C20 UNL     1      -1.500   3.116  -2.948  1.00  0.00     0.014 C   
ATOM     34  C21 UNL     1       0.274   4.447  -1.780  1.00  0.00     0.014 C   
ENDBRANCH  18  32
ENDBRANCH   3  18
TORSDOF 9
