REMARK SMILES CC(C)[C@H]([NH2+]Cc1ccc2c(c1)OCO2)c1cn(CCc2ccccc2)nn1
REMARK SMILES IDX 16 1 17 2 18 3 27 4 28 5 4 7 2 8 1 9 3 10 5 11 6 14 7 15
REMARK SMILES IDX 8 16 12 17 9 18 11 19 10 20 13 21 15 22 14 23 19 24 20 25
REMARK SMILES IDX 21 26 22 27 26 28 23 29 25 30 24 31
REMARK H PARENT 17 6 5 12 5 13
ROOT
ATOM     1   C13 UNL     1       0.016  -2.132  -1.024  1.00  0.00     0.127 A   
ATOM     2   C14 UNL     1      -0.070  -2.826   0.162  1.00  0.00     0.045 A   
ATOM     3   N2  UNL     1       1.213  -3.232   0.397  1.00  0.00    -0.212 N   
ATOM     4   N3  UNL     1       2.036  -2.827  -0.586  1.00  0.00    -0.076 NA  
ATOM     5   N4  UNL     1       1.316  -2.145  -1.461  1.00  0.00    -0.132 NA  
ATOM     6   H18 UNL     1      -0.879  -3.031   0.849  1.00  0.00     0.083 HD  
ENDROOT
BRANCH   1   7
ATOM     7   C4  UNL     1      -1.010  -1.351  -1.776  1.00  0.00     0.117 C   
BRANCH   7   8
ATOM     8   C2  UNL     1      -1.653  -2.167  -2.929  1.00  0.00     0.037 C   
ATOM     9   C1  UNL     1      -0.705  -2.471  -4.095  1.00  0.00     0.014 C   
ATOM     10  C3  UNL     1      -2.918  -1.485  -3.465  1.00  0.00     0.014 C   
ENDBRANCH   7   8
BRANCH   7  11
ATOM     11  N1  UNL     1      -0.409  -0.071  -2.308  1.00  0.00     0.249 N   
ATOM     12  H9  UNL     1       0.444  -0.342  -2.817  1.00  0.00     0.199 HD  
ATOM     13  H10 UNL     1      -1.039   0.375  -2.979  1.00  0.00     0.199 HD  
BRANCH  11  14
ATOM     14  C5  UNL     1      -0.000   0.936  -1.281  1.00  0.00     0.164 C   
BRANCH  14  15
ATOM     15  C6  UNL     1      -1.166   1.513  -0.528  1.00  0.00    -0.002 A   
ATOM     16  C7  UNL     1      -1.418   1.115   0.806  1.00  0.00     0.012 A   
ATOM     17  C11 UNL     1      -2.033   2.427  -1.151  1.00  0.00     0.045 A   
ATOM     18  C8  UNL     1      -2.511   1.623   1.517  1.00  0.00     0.037 A   
ATOM     19  C10 UNL     1      -3.103   2.906  -0.424  1.00  0.00     0.109 A   
ATOM     20  C9  UNL     1      -3.334   2.518   0.873  1.00  0.00     0.108 A   
ATOM     21  O1  UNL     1      -4.032   3.789  -0.875  1.00  0.00    -0.316 OA  
ATOM     22  O2  UNL     1      -4.437   3.109   1.401  1.00  0.00    -0.316 OA  
ATOM     23  C12 UNL     1      -4.853   3.949   0.304  1.00  0.00     0.337 C   
ENDBRANCH  14  15
ENDBRANCH  11  14
ENDBRANCH   7  11
ENDBRANCH   1   7
BRANCH   3  24
ATOM     24  C15 UNL     1       1.726  -3.944   1.549  1.00  0.00     0.139 C   
BRANCH  24  25
ATOM     25  C16 UNL     1       2.660  -3.095   2.414  1.00  0.00     0.057 C   
BRANCH  25  26
ATOM     26  C17 UNL     1       2.010  -1.843   2.957  1.00  0.00    -0.046 A   
ATOM     27  C18 UNL     1       1.027  -1.918   3.953  1.00  0.00     0.004 A   
ATOM     28  C22 UNL     1       2.391  -0.583   2.470  1.00  0.00     0.004 A   
ATOM     29  C19 UNL     1       0.440  -0.755   4.454  1.00  0.00     0.000 A   
ATOM     30  C21 UNL     1       1.808   0.578   2.978  1.00  0.00     0.000 A   
ATOM     31  C20 UNL     1       0.832   0.492   3.969  1.00  0.00     0.000 A   
ENDBRANCH  25  26
ENDBRANCH  24  25
ENDBRANCH   3  24
TORSDOF 8
