REMARK SMILES CC(C)C[C@H]([NH2+]Cc1ccc2c(c1)OCO2)c1cn(Cc2ccc(O)c(F)c2)nn1
REMARK SMILES IDX 17 1 18 2 19 3 29 4 30 5 5 7 4 8 2 9 1 10 3 11 6 12 7 15
REMARK SMILES IDX 8 16 9 17 13 18 10 19 12 20 11 21 14 22 16 23 15 24 20 25
REMARK SMILES IDX 21 26 22 27 28 28 23 29 26 30 24 31 27 32 25 33
REMARK H PARENT 18 6 6 13 6 14 25 34
ROOT
ATOM     1   C14 UNL     1      -0.993  -0.549  -0.436  1.00  0.00     0.127 A   
ATOM     2   C15 UNL     1      -0.945  -0.421  -1.807  1.00  0.00     0.046 A   
ATOM     3   N2  UNL     1      -1.399   0.849  -2.037  1.00  0.00    -0.208 N   
ATOM     4   N3  UNL     1      -1.702   1.466  -0.878  1.00  0.00    -0.076 NA  
ATOM     5   N4  UNL     1      -1.458   0.621   0.109  1.00  0.00    -0.132 NA  
ATOM     6   H20 UNL     1      -0.635  -1.078  -2.608  1.00  0.00     0.083 HD  
ENDROOT
BRANCH   1   7
ATOM     7   C5  UNL     1      -0.592  -1.663   0.472  1.00  0.00     0.114 C   
BRANCH   7   8
ATOM     8   C4  UNL     1      -1.790  -2.513   0.935  1.00  0.00     0.064 C   
BRANCH   8   9
ATOM     9   C2  UNL     1      -2.536  -3.267  -0.189  1.00  0.00    -0.012 C   
ATOM     10  C1  UNL     1      -1.633  -4.251  -0.934  1.00  0.00     0.007 C   
ATOM     11  C3  UNL     1      -3.736  -4.015   0.401  1.00  0.00     0.007 C   
ENDBRANCH   8   9
ENDBRANCH   7   8
BRANCH   7  12
ATOM     12  N1  UNL     1       0.054  -1.094   1.714  1.00  0.00     0.249 N   
ATOM     13  H11 UNL     1      -0.533  -0.300   2.016  1.00  0.00     0.199 HD  
ATOM     14  H12 UNL     1       0.042  -1.767   2.487  1.00  0.00     0.199 HD  
BRANCH  12  15
ATOM     15  C6  UNL     1       1.437  -0.576   1.526  1.00  0.00     0.164 C   
BRANCH  15  16
ATOM     16  C7  UNL     1       1.979  -0.030   2.817  1.00  0.00    -0.002 A   
ATOM     17  C8  UNL     1       2.569  -0.896   3.772  1.00  0.00     0.012 A   
ATOM     18  C12 UNL     1       1.865   1.342   3.102  1.00  0.00     0.045 A   
ATOM     19  C9  UNL     1       3.047  -0.401   4.990  1.00  0.00     0.037 A   
ATOM     20  C11 UNL     1       2.354   1.798   4.309  1.00  0.00     0.109 A   
ATOM     21  C10 UNL     1       2.926   0.952   5.227  1.00  0.00     0.108 A   
ATOM     22  O1  UNL     1       2.338   3.090   4.730  1.00  0.00    -0.316 OA  
ATOM     23  O2  UNL     1       3.335   1.605   6.346  1.00  0.00    -0.316 OA  
ATOM     24  C13 UNL     1       2.996   2.969   6.011  1.00  0.00     0.337 C   
ENDBRANCH  15  16
ENDBRANCH  12  15
ENDBRANCH   7  12
ENDBRANCH   1   7
BRANCH   3  25
ATOM     25  C16 UNL     1      -1.552   1.539  -3.307  1.00  0.00     0.169 C   
BRANCH  25  26
ATOM     26  C17 UNL     1      -0.237   2.117  -3.771  1.00  0.00    -0.025 A   
ATOM     27  C18 UNL     1       0.314   3.241  -3.123  1.00  0.00     0.008 A   
ATOM     28  C22 UNL     1       0.460   1.544  -4.847  1.00  0.00     0.047 A   
ATOM     29  C19 UNL     1       1.538   3.777  -3.537  1.00  0.00     0.036 A   
ATOM     30  C21 UNL     1       1.675   2.089  -5.252  1.00  0.00     0.153 A   
ATOM     31  C20 UNL     1       2.212   3.196  -4.602  1.00  0.00     0.107 A   
ATOM     32  F1  UNL     1       2.338   1.539  -6.279  1.00  0.00    -0.204 F   
BRANCH  31  33
ATOM     33  O3  UNL     1       3.404   3.732  -4.994  1.00  0.00    -0.358 OA  
ATOM     34  H25 UNL     1       3.682   3.259  -5.800  1.00  0.00     0.218 HD  
ENDBRANCH  31  33
ENDBRANCH  25  26
ENDBRANCH   3  25
TORSDOF 9
