REMARK SMILES CC(C)[C@H]([NH2+]Cc1ccc2c(c1)OCO2)c1cn(C(=O)c2nn[nH]c2Cl)nn1
REMARK SMILES IDX 16 1 17 2 18 3 27 4 28 5 4 6 2 7 1 8 3 9 5 10 6 13 7 14 8 15
REMARK SMILES IDX 12 16 9 17 11 18 10 19 13 20 15 21 14 22 19 23 20 24 21 25
REMARK SMILES IDX 22 26 25 27 23 28 24 29 26 30
REMARK H PARENT 5 11 5 12 24 31
ROOT
ATOM     1   C13 UNL     1       0.012  -0.570  -1.210  1.00  0.00     0.128 A   
ATOM     2   C14 UNL     1       0.201   0.541  -0.418  1.00  0.00     0.139 A   
ATOM     3   N2  UNL     1      -0.991   1.248  -0.490  1.00  0.00    -0.142 N   
ATOM     4   N6  UNL     1      -1.817   0.600  -1.363  1.00  0.00    -0.068 NA  
ATOM     5   N7  UNL     1      -1.229  -0.509  -1.775  1.00  0.00    -0.131 NA  
ENDROOT
BRANCH   1   6
ATOM     6   C4  UNL     1       0.850  -1.793  -1.418  1.00  0.00     0.117 C   
BRANCH   6   7
ATOM     7   C2  UNL     1       1.602  -1.826  -2.773  1.00  0.00     0.037 C   
ATOM     8   C1  UNL     1       0.695  -1.775  -4.007  1.00  0.00     0.014 C   
ATOM     9   C3  UNL     1       2.650  -0.709  -2.855  1.00  0.00     0.014 C   
ENDBRANCH   6   7
BRANCH   6  10
ATOM     10  N1  UNL     1      -0.036  -3.024  -1.319  1.00  0.00     0.249 N   
ATOM     11  H9  UNL     1       0.282  -3.748  -1.971  1.00  0.00     0.199 HD  
ATOM     12  H10 UNL     1      -0.969  -2.733  -1.652  1.00  0.00     0.199 HD  
BRANCH  10  13
ATOM     13  C5  UNL     1      -0.189  -3.637   0.037  1.00  0.00     0.164 C   
BRANCH  13  14
ATOM     14  C6  UNL     1      -0.672  -2.685   1.095  1.00  0.00    -0.002 A   
ATOM     15  C7  UNL     1      -2.009  -2.217   1.090  1.00  0.00     0.012 A   
ATOM     16  C11 UNL     1       0.224  -2.196   2.062  1.00  0.00     0.045 A   
ATOM     17  C8  UNL     1      -2.438  -1.251   2.008  1.00  0.00     0.037 A   
ATOM     18  C10 UNL     1      -0.231  -1.245   2.951  1.00  0.00     0.109 A   
ATOM     19  C9  UNL     1      -1.521  -0.778   2.920  1.00  0.00     0.108 A   
ATOM     20  O1  UNL     1       0.515  -0.651   3.918  1.00  0.00    -0.316 OA  
ATOM     21  O2  UNL     1      -1.747   0.179   3.857  1.00  0.00    -0.316 OA  
ATOM     22  C12 UNL     1      -0.465   0.221   4.524  1.00  0.00     0.337 C   
ENDBRANCH  13  14
ENDBRANCH  10  13
ENDBRANCH   6  10
ENDBRANCH   1   6
BRANCH   3  23
ATOM     23  C15 UNL     1      -1.433   2.419   0.168  1.00  0.00     0.294 C   
ATOM     24  O3  UNL     1      -2.530   2.861  -0.171  1.00  0.00    -0.267 OA  
BRANCH  23  25
ATOM     25  C16 UNL     1      -0.649   3.073   1.202  1.00  0.00     0.186 A   
ATOM     26  N3  UNL     1       0.488   2.540   1.768  1.00  0.00    -0.126 NA  
ATOM     27  C17 UNL     1      -0.885   4.279   1.812  1.00  0.00     0.148 A   
ATOM     28  N4  UNL     1       0.947   3.383   2.684  1.00  0.00    -0.077 NA  
ATOM     29  N5  UNL     1       0.116   4.441   2.712  1.00  0.00    -0.206 N   
ATOM     30  CL1 UNL     1      -2.055   5.491   1.673  1.00  0.00    -0.063 Cl  
ATOM     31  H19 UNL     1       0.294   5.207   3.352  1.00  0.00     0.178 HD  
ENDBRANCH  23  25
ENDBRANCH   3  23
TORSDOF 7
