REMARK SMILES CC(C)(C)[C@H]([NH2+]Cc1ccc2c(c1)OCO2)c1cn(CCc2ccc(Cl)cc2O)nn1
REMARK SMILES IDX 17 1 18 2 19 3 30 4 31 5 5 7 2 8 1 9 3 10 4 11 6 12 7 15
REMARK SMILES IDX 8 16 9 17 13 18 10 19 12 20 11 21 14 22 16 23 15 24 20 25
REMARK SMILES IDX 21 26 22 27 23 28 28 29 24 30 27 31 25 32 26 33 29 34
REMARK H PARENT 18 6 6 13 6 14 29 35
ROOT
ATOM     1   C14 UNL     1      -0.037  -1.414  -0.285  1.00  0.00     0.127 A   
ATOM     2   C15 UNL     1      -0.488  -1.464  -1.585  1.00  0.00     0.045 A   
ATOM     3   N2  UNL     1      -1.801  -1.819  -1.465  1.00  0.00    -0.212 N   
ATOM     4   N3  UNL     1      -2.147  -1.960  -0.172  1.00  0.00    -0.076 NA  
ATOM     5   N4  UNL     1      -1.074  -1.716   0.562  1.00  0.00    -0.132 NA  
ATOM     6   H20 UNL     1      -0.025  -1.277  -2.544  1.00  0.00     0.083 HD  
ENDROOT
BRANCH   1   7
ATOM     7   C5  UNL     1       1.291  -1.016   0.282  1.00  0.00     0.120 C   
BRANCH   7   8
ATOM     8   C2  UNL     1       2.252  -2.222   0.578  1.00  0.00     0.010 C   
ATOM     9   C1  UNL     1       2.469  -3.055  -0.707  1.00  0.00     0.017 C   
ATOM     10  C3  UNL     1       3.642  -1.704   1.016  1.00  0.00     0.017 C   
ATOM     11  C4  UNL     1       1.718  -3.160   1.678  1.00  0.00     0.017 C   
ENDBRANCH   7   8
BRANCH   7  12
ATOM     12  N1  UNL     1       1.061  -0.205   1.544  1.00  0.00     0.250 N   
ATOM     13  H11 UNL     1       1.926  -0.092   2.074  1.00  0.00     0.199 HD  
ATOM     14  H12 UNL     1       0.414  -0.758   2.124  1.00  0.00     0.199 HD  
BRANCH  12  15
ATOM     15  C6  UNL     1       0.435   1.139   1.359  1.00  0.00     0.164 C   
BRANCH  15  16
ATOM     16  C7  UNL     1       1.322   2.100   0.618  1.00  0.00    -0.002 A   
ATOM     17  C8  UNL     1       1.025   2.454  -0.721  1.00  0.00     0.012 A   
ATOM     18  C12 UNL     1       2.469   2.629   1.234  1.00  0.00     0.045 A   
ATOM     19  C9  UNL     1       1.856   3.321  -1.438  1.00  0.00     0.037 A   
ATOM     20  C11 UNL     1       3.268   3.479   0.498  1.00  0.00     0.109 A   
ATOM     21  C10 UNL     1       2.971   3.814  -0.800  1.00  0.00     0.108 A   
ATOM     22  O1  UNL     1       4.409   4.069   0.940  1.00  0.00    -0.316 OA  
ATOM     23  O2  UNL     1       3.888   4.659  -1.339  1.00  0.00    -0.316 OA  
ATOM     24  C13 UNL     1       4.784   4.845  -0.222  1.00  0.00     0.337 C   
ENDBRANCH  15  16
ENDBRANCH  12  15
ENDBRANCH   7  12
ENDBRANCH   1   7
BRANCH   3  25
ATOM     25  C16 UNL     1      -2.775  -2.007  -2.520  1.00  0.00     0.139 C   
BRANCH  25  26
ATOM     26  C17 UNL     1      -3.821  -0.892  -2.578  1.00  0.00     0.059 C   
BRANCH  26  27
ATOM     27  C18 UNL     1      -3.246   0.497  -2.759  1.00  0.00    -0.016 A   
ATOM     28  C19 UNL     1      -3.398   1.450  -1.739  1.00  0.00     0.008 A   
ATOM     29  C23 UNL     1      -2.581   0.874  -3.933  1.00  0.00     0.076 A   
ATOM     30  C20 UNL     1      -2.888   2.740  -1.892  1.00  0.00     0.021 A   
ATOM     31  C22 UNL     1      -2.064   2.158  -4.092  1.00  0.00     0.054 A   
ATOM     32  C21 UNL     1      -2.220   3.086  -3.065  1.00  0.00     0.043 A   
ATOM     33  CL1 UNL     1      -1.563   4.666  -3.236  1.00  0.00    -0.084 Cl  
BRANCH  29  34
ATOM     34  O3  UNL     1      -2.438  -0.050  -4.928  1.00  0.00    -0.361 OA  
ATOM     35  H28 UNL     1      -2.208   0.410  -5.757  1.00  0.00     0.218 HD  
ENDBRANCH  29  34
ENDBRANCH  26  27
ENDBRANCH  25  26
ENDBRANCH   3  25
TORSDOF 9
