REMARK SMILES CC(C)C[C@H]([NH2+]Cc1ccc2c(c1)OCO2)c1cn(Cc2cnn(CC(C)C)c2)nn1
REMARK SMILES IDX 17 1 18 2 19 3 30 4 31 5 5 7 4 8 2 9 1 10 3 11 6 12 7 15
REMARK SMILES IDX 8 16 9 17 13 18 10 19 12 20 11 21 14 22 16 23 15 24 20 25
REMARK SMILES IDX 21 26 22 27 29 28 23 29 24 30 25 31 26 32 27 33 28 34
REMARK H PARENT 18 6 6 13 6 14
ROOT
ATOM     1   C14 UNL     1      -0.943  -2.231  -1.387  1.00  0.00     0.127 A   
ATOM     2   C15 UNL     1       0.137  -2.203  -0.534  1.00  0.00     0.046 A   
ATOM     3   N2  UNL     1       1.171  -2.672  -1.299  1.00  0.00    -0.208 N   
ATOM     4   N5  UNL     1       0.747  -2.993  -2.537  1.00  0.00    -0.076 NA  
ATOM     5   N6  UNL     1      -0.546  -2.726  -2.604  1.00  0.00    -0.132 NA  
ATOM     6   H20 UNL     1       0.278  -1.862   0.482  1.00  0.00     0.083 HD  
ENDROOT
BRANCH   1   7
ATOM     7   C5  UNL     1      -2.348  -1.742  -1.233  1.00  0.00     0.114 C   
BRANCH   7   8
ATOM     8   C4  UNL     1      -3.296  -2.876  -0.807  1.00  0.00     0.064 C   
BRANCH   8   9
ATOM     9   C2  UNL     1      -4.754  -2.452  -0.532  1.00  0.00    -0.012 C   
ATOM     10  C1  UNL     1      -5.603  -3.692  -0.234  1.00  0.00     0.007 C   
ATOM     11  C3  UNL     1      -4.862  -1.464   0.631  1.00  0.00     0.007 C   
ENDBRANCH   8   9
ENDBRANCH   7   8
BRANCH   7  12
ATOM     12  N1  UNL     1      -2.799  -1.181  -2.567  1.00  0.00     0.249 N   
ATOM     13  H11 UNL     1      -3.578  -1.729  -2.945  1.00  0.00     0.199 HD  
ATOM     14  H12 UNL     1      -2.026  -1.367  -3.227  1.00  0.00     0.199 HD  
BRANCH  12  15
ATOM     15  C6  UNL     1      -3.119   0.269  -2.621  1.00  0.00     0.164 C   
BRANCH  15  16
ATOM     16  C7  UNL     1      -2.026   1.177  -2.126  1.00  0.00    -0.002 A   
ATOM     17  C8  UNL     1      -0.724   1.136  -2.682  1.00  0.00     0.012 A   
ATOM     18  C12 UNL     1      -2.305   2.098  -1.101  1.00  0.00     0.045 A   
ATOM     19  C9  UNL     1       0.288   1.984  -2.213  1.00  0.00     0.037 A   
ATOM     20  C11 UNL     1      -1.290   2.925  -0.670  1.00  0.00     0.109 A   
ATOM     21  C10 UNL     1      -0.029   2.870  -1.208  1.00  0.00     0.108 A   
ATOM     22  O1  UNL     1      -1.400   3.868   0.303  1.00  0.00    -0.316 OA  
ATOM     23  O2  UNL     1       0.813   3.775  -0.645  1.00  0.00    -0.316 OA  
ATOM     24  C13 UNL     1      -0.072   4.436   0.284  1.00  0.00     0.337 C   
ENDBRANCH  15  16
ENDBRANCH  12  15
ENDBRANCH   7  12
ENDBRANCH   1   7
BRANCH   3  25
ATOM     25  C16 UNL     1       2.582  -2.760  -0.953  1.00  0.00     0.172 C   
BRANCH  25  26
ATOM     26  C17 UNL     1       3.229  -1.430  -1.106  1.00  0.00     0.007 A   
ATOM     27  C18 UNL     1       3.308  -0.642  -2.279  1.00  0.00     0.138 A   
ATOM     28  C23 UNL     1       3.895  -0.680  -0.157  1.00  0.00     0.102 A   
ATOM     29  N3  UNL     1       3.921   0.522  -2.074  1.00  0.00    -0.190 NA  
ATOM     30  N4  UNL     1       4.295   0.469  -0.782  1.00  0.00    -0.232 N   
BRANCH  30  31
ATOM     31  C19 UNL     1       5.069   1.553  -0.205  1.00  0.00     0.135 C   
BRANCH  31  32
ATOM     32  C20 UNL     1       4.220   2.773   0.186  1.00  0.00     0.002 C   
ATOM     33  C21 UNL     1       3.267   2.456   1.341  1.00  0.00     0.009 C   
ATOM     34  C22 UNL     1       5.134   3.938   0.573  1.00  0.00     0.009 C   
ENDBRANCH  31  32
ENDBRANCH  30  31
ENDBRANCH  25  26
ENDBRANCH   3  25
TORSDOF 10
