REMARK SMILES Cc1cc(CCn2cc([C@@H]([NH2+]Cc3ccc4c(c3)OCO4)C(C)(C)C)nn2)ccc1F
REMARK SMILES IDX 7 1 8 2 9 3 26 4 27 5 6 7 5 8 4 9 2 10 3 11 30 12 29 13
REMARK SMILES IDX 28 14 1 15 31 16 10 17 11 18 12 21 13 22 14 23 18 24 15 25
REMARK SMILES IDX 17 26 16 27 19 28 21 29 20 30 22 31 23 32 24 33 25 34
REMARK H PARENT 8 6 11 19 11 20
ROOT
ATOM     1   N1  UNL     1      -1.237  -2.847   0.156  1.00  0.00    -0.212 N   
ATOM     2   C7  UNL     1      -0.902  -2.223  -1.013  1.00  0.00     0.045 A   
ATOM     3   C8  UNL     1       0.338  -1.683  -0.756  1.00  0.00     0.127 A   
ATOM     4   N3  UNL     1       0.710  -2.002   0.526  1.00  0.00    -0.132 NA  
ATOM     5   N4  UNL     1      -0.258  -2.720   1.070  1.00  0.00    -0.076 NA  
ATOM     6   H9  UNL     1      -1.569  -2.184  -1.863  1.00  0.00     0.083 HD  
ENDROOT
BRANCH   1   7
ATOM     7   C6  UNL     1      -2.499  -3.470   0.500  1.00  0.00     0.139 C   
BRANCH   7   8
ATOM     8   C5  UNL     1      -3.311  -2.659   1.515  1.00  0.00     0.057 C   
BRANCH   8   9
ATOM     9   C4  UNL     1      -3.564  -1.231   1.081  1.00  0.00    -0.046 A   
ATOM     10  C2  UNL     1      -3.146   1.158   1.364  1.00  0.00    -0.015 A   
ATOM     11  C3  UNL     1      -2.955  -0.169   1.773  1.00  0.00     0.010 A   
ATOM     12  C24 UNL     1      -3.956   1.405   0.254  1.00  0.00     0.126 A   
ATOM     13  C23 UNL     1      -4.577   0.368  -0.434  1.00  0.00     0.040 A   
ATOM     14  C22 UNL     1      -4.387  -0.950  -0.019  1.00  0.00     0.007 A   
ATOM     15  C1  UNL     1      -2.539   2.302   2.119  1.00  0.00     0.047 C   
ATOM     16  F1  UNL     1      -4.137   2.664  -0.170  1.00  0.00    -0.207 F   
ENDBRANCH   8   9
ENDBRANCH   7   8
ENDBRANCH   1   7
BRANCH   3  17
ATOM     17  C9  UNL     1       1.195  -0.759  -1.567  1.00  0.00     0.120 C   
BRANCH  17  18
ATOM     18  N2  UNL     1       1.720   0.322  -0.651  1.00  0.00     0.250 N   
ATOM     19  H11 UNL     1       2.074  -0.154   0.192  1.00  0.00     0.199 HD  
ATOM     20  H12 UNL     1       2.514   0.828  -1.050  1.00  0.00     0.199 HD  
BRANCH  18  21
ATOM     21  C10 UNL     1       0.700   1.312  -0.200  1.00  0.00     0.164 C   
BRANCH  21  22
ATOM     22  C11 UNL     1       1.288   2.249   0.815  1.00  0.00    -0.002 A   
ATOM     23  C12 UNL     1       1.347   1.871   2.178  1.00  0.00     0.012 A   
ATOM     24  C16 UNL     1       1.822   3.485   0.414  1.00  0.00     0.045 A   
ATOM     25  C13 UNL     1       1.916   2.718   3.134  1.00  0.00     0.037 A   
ATOM     26  C15 UNL     1       2.376   4.296   1.382  1.00  0.00     0.109 A   
ATOM     27  C14 UNL     1       2.421   3.925   2.704  1.00  0.00     0.108 A   
ATOM     28  O1  UNL     1       2.931   5.517   1.166  1.00  0.00    -0.316 OA  
ATOM     29  O2  UNL     1       3.004   4.869   3.487  1.00  0.00    -0.316 OA  
ATOM     30  C17 UNL     1       3.311   5.887   2.511  1.00  0.00     0.337 C   
ENDBRANCH  21  22
ENDBRANCH  18  21
ENDBRANCH  17  18
BRANCH  17  31
ATOM     31  C18 UNL     1       2.372  -1.465  -2.322  1.00  0.00     0.010 C   
ATOM     32  C19 UNL     1       3.096  -0.457  -3.245  1.00  0.00     0.017 C   
ATOM     33  C20 UNL     1       1.821  -2.589  -3.229  1.00  0.00     0.017 C   
ATOM     34  C21 UNL     1       3.415  -2.080  -1.368  1.00  0.00     0.017 C   
ENDBRANCH  17  31
ENDBRANCH   3  17
TORSDOF 8
