REMARK SMILES Cc1cc(Cn2cc([C@@H]([NH2+]Cc3ccc4c(c3)OCO4)C(C)(C)C)nn2)ccn1
REMARK SMILES IDX 6 1 7 2 8 3 25 4 26 5 5 7 4 8 2 9 3 10 29 11 28 12 27 13
REMARK SMILES IDX 1 14 9 15 10 16 11 19 12 20 13 21 17 22 14 23 16 24 15 25
REMARK SMILES IDX 18 26 20 27 19 28 21 29 22 30 23 31 24 32
REMARK H PARENT 7 6 10 17 10 18
ROOT
ATOM     1   N1  UNL     1      -1.922  -1.237  -1.754  1.00  0.00    -0.208 N   
ATOM     2   C6  UNL     1      -1.946  -1.016  -0.404  1.00  0.00     0.046 A   
ATOM     3   C7  UNL     1      -2.227   0.327  -0.290  1.00  0.00     0.127 A   
ATOM     4   N3  UNL     1      -2.404   0.857  -1.542  1.00  0.00    -0.132 NA  
ATOM     5   N4  UNL     1      -2.206  -0.106  -2.429  1.00  0.00    -0.076 NA  
ATOM     6   H7  UNL     1      -1.709  -1.788   0.316  1.00  0.00     0.083 HD  
ENDROOT
BRANCH   1   7
ATOM     7   C5  UNL     1      -1.508  -2.442  -2.454  1.00  0.00     0.169 C   
BRANCH   7   8
ATOM     8   C4  UNL     1      -0.018  -2.630  -2.319  1.00  0.00    -0.025 A   
ATOM     9   C2  UNL     1       2.238  -1.994  -2.876  1.00  0.00     0.038 A   
ATOM     10  C3  UNL     1       0.868  -1.856  -3.080  1.00  0.00     0.029 A   
ATOM     11  N5  UNL     1       2.750  -2.841  -1.955  1.00  0.00    -0.262 NA  
ATOM     12  C22 UNL     1       1.887  -3.605  -1.254  1.00  0.00     0.111 A   
ATOM     13  C21 UNL     1       0.512  -3.534  -1.394  1.00  0.00     0.025 A   
ATOM     14  C1  UNL     1       3.208  -1.178  -3.676  1.00  0.00     0.067 C   
ENDBRANCH   7   8
ENDBRANCH   1   7
BRANCH   3  15
ATOM     15  C8  UNL     1      -2.234   1.220   0.912  1.00  0.00     0.120 C   
BRANCH  15  16
ATOM     16  N2  UNL     1      -1.540   2.532   0.593  1.00  0.00     0.250 N   
ATOM     17  H9  UNL     1      -1.571   3.158   1.400  1.00  0.00     0.199 HD  
ATOM     18  H10 UNL     1      -2.073   2.974  -0.166  1.00  0.00     0.199 HD  
BRANCH  16  19
ATOM     19  C9  UNL     1      -0.120   2.451   0.116  1.00  0.00     0.164 C   
BRANCH  19  20
ATOM     20  C10 UNL     1       0.796   1.692   1.034  1.00  0.00    -0.002 A   
ATOM     21  C11 UNL     1       1.393   0.484   0.595  1.00  0.00     0.012 A   
ATOM     22  C15 UNL     1       1.061   2.160   2.332  1.00  0.00     0.045 A   
ATOM     23  C12 UNL     1       2.232  -0.254   1.436  1.00  0.00     0.037 A   
ATOM     24  C14 UNL     1       1.890   1.406   3.137  1.00  0.00     0.109 A   
ATOM     25  C13 UNL     1       2.458   0.233   2.704  1.00  0.00     0.108 A   
ATOM     26  O1  UNL     1       2.240   1.712   4.414  1.00  0.00    -0.316 OA  
ATOM     27  O2  UNL     1       3.236  -0.348   3.653  1.00  0.00    -0.316 OA  
ATOM     28  C16 UNL     1       3.129   0.614   4.724  1.00  0.00     0.337 C   
ENDBRANCH  19  20
ENDBRANCH  16  19
ENDBRANCH  15  16
BRANCH  15  29
ATOM     29  C17 UNL     1      -3.664   1.488   1.504  1.00  0.00     0.010 C   
ATOM     30  C18 UNL     1      -4.340   0.147   1.875  1.00  0.00     0.017 C   
ATOM     31  C19 UNL     1      -4.590   2.241   0.529  1.00  0.00     0.017 C   
ATOM     32  C20 UNL     1      -3.562   2.316   2.806  1.00  0.00     0.017 C   
ENDBRANCH  15  29
ENDBRANCH   3  15
TORSDOF 7
