REMARK SMILES CC(C)C[C@H]([NH2+]Cc1ccc2c(c1)OCO2)c1cn(-c2ccnc(C(F)(F)F)n2)nn1
REMARK SMILES IDX 17 1 18 2 19 3 30 4 31 5 5 6 4 7 2 8 1 9 3 10 6 11 7 14 8 15
REMARK SMILES IDX 9 16 13 17 10 18 12 19 11 20 14 21 16 22 15 23 20 24 21 25
REMARK SMILES IDX 29 26 22 27 24 28 23 29 25 30 26 31 27 32 28 33
REMARK H PARENT 6 12 6 13
ROOT
ATOM     1   C14 UNL     1       0.419  -1.856   0.392  1.00  0.00     0.127 A   
ATOM     2   C15 UNL     1       1.126  -2.319  -0.693  1.00  0.00     0.137 A   
ATOM     3   N2  UNL     1       1.239  -3.681  -0.491  1.00  0.00    -0.162 N   
ATOM     4   N5  UNL     1       0.594  -4.015   0.656  1.00  0.00    -0.070 NA  
ATOM     5   N6  UNL     1       0.104  -2.913   1.203  1.00  0.00    -0.131 NA  
ENDROOT
BRANCH   1   6
ATOM     6   C5  UNL     1      -0.024  -0.473   0.756  1.00  0.00     0.114 C   
BRANCH   6   7
ATOM     7   C4  UNL     1       1.056   0.236   1.601  1.00  0.00     0.064 C   
BRANCH   7   8
ATOM     8   C2  UNL     1       0.784   1.711   1.968  1.00  0.00    -0.012 C   
ATOM     9   C1  UNL     1       1.956   2.259   2.788  1.00  0.00     0.007 C   
ATOM     10  C3  UNL     1       0.561   2.592   0.738  1.00  0.00     0.007 C   
ENDBRANCH   7   8
ENDBRANCH   6   7
BRANCH   6  11
ATOM     11  N1  UNL     1      -1.311  -0.517   1.544  1.00  0.00     0.249 N   
ATOM     12  H11 UNL     1      -1.498   0.387   1.984  1.00  0.00     0.199 HD  
ATOM     13  H12 UNL     1      -1.169  -1.199   2.303  1.00  0.00     0.199 HD  
BRANCH  11  14
ATOM     14  C6  UNL     1      -2.534  -0.930   0.790  1.00  0.00     0.164 C   
BRANCH  14  15
ATOM     15  C7  UNL     1      -2.950   0.086  -0.237  1.00  0.00    -0.002 A   
ATOM     16  C8  UNL     1      -2.773  -0.179  -1.617  1.00  0.00     0.012 A   
ATOM     17  C12 UNL     1      -3.488   1.321   0.166  1.00  0.00     0.045 A   
ATOM     18  C9  UNL     1      -3.115   0.774  -2.582  1.00  0.00     0.037 A   
ATOM     19  C11 UNL     1      -3.812   2.239  -0.812  1.00  0.00     0.109 A   
ATOM     20  C10 UNL     1      -3.630   1.975  -2.146  1.00  0.00     0.108 A   
ATOM     21  O1  UNL     1      -4.328   3.476  -0.592  1.00  0.00    -0.316 OA  
ATOM     22  O2  UNL     1      -4.010   3.012  -2.936  1.00  0.00    -0.316 OA  
ATOM     23  C13 UNL     1      -4.480   3.955  -1.949  1.00  0.00     0.337 C   
ENDBRANCH  14  15
ENDBRANCH  11  14
ENDBRANCH   6  11
ENDBRANCH   1   6
BRANCH   3  24
ATOM     24  C16 UNL     1       1.898  -4.619  -1.327  1.00  0.00     0.150 A   
ATOM     25  C17 UNL     1       1.922  -5.951  -0.967  1.00  0.00     0.067 A   
ATOM     26  N4  UNL     1       2.479  -4.146  -2.457  1.00  0.00    -0.207 NA  
ATOM     27  C18 UNL     1       2.583  -6.787  -1.833  1.00  0.00     0.117 A   
ATOM     28  C19 UNL     1       3.104  -5.046  -3.261  1.00  0.00     0.236 A   
ATOM     29  N3  UNL     1       3.175  -6.365  -2.966  1.00  0.00    -0.233 NA  
BRANCH  28  30
ATOM     30  C20 UNL     1       3.799  -4.534  -4.533  1.00  0.00     0.451 C   
ATOM     31  F1  UNL     1       3.177  -3.438  -5.069  1.00  0.00    -0.163 F   
ATOM     32  F2  UNL     1       3.851  -5.450  -5.543  1.00  0.00    -0.163 F   
ATOM     33  F3  UNL     1       5.089  -4.146  -4.309  1.00  0.00    -0.163 F   
ENDBRANCH  28  30
ENDBRANCH   3  24
TORSDOF 8
