REMARK SMILES COc1ccnc(Cn2cc([C@H](CC(C)C)[NH2+]Cc3ccc4c(c3)OCO4)nn2)c1C
REMARK SMILES IDX 9 1 10 2 11 3 28 4 29 5 8 7 7 8 3 9 4 10 30 11 5 12 6 13
REMARK SMILES IDX 31 14 2 15 1 16 12 17 13 18 14 19 15 20 16 21 17 22 18 25
REMARK SMILES IDX 19 26 20 27 24 28 21 29 23 30 22 31 25 32 27 33 26 34
REMARK H PARENT 10 6 17 23 17 24
ROOT
ATOM     1   N2  UNL     1       1.710   0.356  -1.464  1.00  0.00    -0.206 N   
ATOM     2   C7  UNL     1       0.369   0.493  -1.696  1.00  0.00     0.046 A   
ATOM     3   C8  UNL     1       0.040   1.668  -1.062  1.00  0.00     0.127 A   
ATOM     4   N4  UNL     1       1.173   2.228  -0.530  1.00  0.00    -0.132 NA  
ATOM     5   N5  UNL     1       2.188   1.417  -0.782  1.00  0.00    -0.076 NA  
ATOM     6   H8  UNL     1      -0.206  -0.268  -2.207  1.00  0.00     0.083 HD  
ENDROOT
BRANCH   1   7
ATOM     7   C6  UNL     1       2.560  -0.776  -1.784  1.00  0.00     0.190 C   
BRANCH   7   8
ATOM     8   C5  UNL     1       2.224  -1.933  -0.874  1.00  0.00     0.065 A   
ATOM     9   C2  UNL     1       2.483  -3.269   1.111  1.00  0.00     0.081 A   
ATOM     10  C3  UNL     1       1.393  -4.032   0.700  1.00  0.00     0.054 A   
ATOM     11  C22 UNL     1       2.919  -2.191   0.319  1.00  0.00     0.003 A   
ATOM     12  C4  UNL     1       0.770  -3.699  -0.486  1.00  0.00     0.114 A   
ATOM     13  N1  UNL     1       1.151  -2.671  -1.268  1.00  0.00    -0.259 NA  
ATOM     14  C23 UNL     1       4.095  -1.347   0.732  1.00  0.00     0.049 C   
BRANCH   9  15
ATOM     15  O1  UNL     1       3.175  -3.486   2.273  1.00  0.00    -0.349 OA  
ATOM     16  C1  UNL     1       2.879  -4.666   3.011  1.00  0.00     0.203 C   
ENDBRANCH   9  15
ENDBRANCH   7   8
ENDBRANCH   1   7
BRANCH   3  17
ATOM     17  C9  UNL     1      -1.289   2.287  -0.803  1.00  0.00     0.114 C   
BRANCH  17  18
ATOM     18  C10 UNL     1      -1.542   3.541  -1.662  1.00  0.00     0.064 C   
BRANCH  18  19
ATOM     19  C11 UNL     1      -1.580   3.294  -3.186  1.00  0.00    -0.012 C   
ATOM     20  C12 UNL     1      -1.772   4.625  -3.918  1.00  0.00     0.007 C   
ATOM     21  C13 UNL     1      -2.686   2.319  -3.592  1.00  0.00     0.007 C   
ENDBRANCH  18  19
ENDBRANCH  17  18
BRANCH  17  22
ATOM     22  N3  UNL     1      -1.392   2.722   0.648  1.00  0.00     0.249 N   
ATOM     23  H19 UNL     1      -0.626   3.391   0.804  1.00  0.00     0.199 HD  
ATOM     24  H20 UNL     1      -2.272   3.221   0.798  1.00  0.00     0.199 HD  
BRANCH  22  25
ATOM     25  C14 UNL     1      -1.247   1.649   1.680  1.00  0.00     0.164 C   
BRANCH  25  26
ATOM     26  C15 UNL     1      -2.261   0.546   1.557  1.00  0.00    -0.002 A   
ATOM     27  C16 UNL     1      -3.626   0.787   1.843  1.00  0.00     0.012 A   
ATOM     28  C20 UNL     1      -1.858  -0.735   1.137  1.00  0.00     0.045 A   
ATOM     29  C17 UNL     1      -4.578  -0.228   1.706  1.00  0.00     0.037 A   
ATOM     30  C19 UNL     1      -2.822  -1.713   1.011  1.00  0.00     0.109 A   
ATOM     31  C18 UNL     1      -4.144  -1.466   1.287  1.00  0.00     0.108 A   
ATOM     32  O2  UNL     1      -2.606  -2.995   0.617  1.00  0.00    -0.316 OA  
ATOM     33  O3  UNL     1      -4.928  -2.559   1.102  1.00  0.00    -0.316 OA  
ATOM     34  C21 UNL     1      -3.947  -3.531   0.682  1.00  0.00     0.337 C   
ENDBRANCH  25  26
ENDBRANCH  22  25
ENDBRANCH  17  22
ENDBRANCH   3  17
TORSDOF 9
