REMARK SMILES [O-]N([O-])c1ccc(-n2cc([C@@H]([NH2+]Cc3ccc4c(c3)OCO4)C3CCCC3)nn2)c(F)c1
REMARK SMILES IDX 8 1 9 2 10 3 28 4 29 5 7 6 4 7 5 8 32 9 6 10 30 11 31 12
REMARK SMILES IDX 2 13 1 14 3 15 11 16 12 17 13 20 14 21 15 22 19 23 16 24
REMARK SMILES IDX 18 25 17 26 20 27 22 28 21 29 23 30 24 31 27 32 25 33 26 34
REMARK H PARENT 12 18 12 19
ROOT
ATOM     1   N2  UNL     1       0.508  -2.475   1.681  1.00  0.00    -0.178 N   
ATOM     2   C5  UNL     1       1.097  -2.238   0.454  1.00  0.00     0.135 A   
ATOM     3   C6  UNL     1       0.400  -1.180  -0.086  1.00  0.00     0.127 A   
ATOM     4   N4  UNL     1      -0.586  -0.808   0.781  1.00  0.00    -0.131 NA  
ATOM     5   N5  UNL     1      -0.524  -1.602   1.836  1.00  0.00    -0.071 NA  
ENDROOT
BRANCH   1   6
ATOM     6   C4  UNL     1       0.821  -3.431   2.680  1.00  0.00     0.093 A   
ATOM     7   C1  UNL     1       1.410  -5.303   4.684  1.00  0.00     0.121 A   
ATOM     8   C2  UNL     1       0.356  -4.399   4.866  1.00  0.00     0.033 A   
ATOM     9   C22 UNL     1       2.170  -5.277   3.510  1.00  0.00     0.072 A   
ATOM     10  C3  UNL     1       0.063  -3.466   3.865  1.00  0.00     0.031 A   
ATOM     11  C21 UNL     1       1.869  -4.343   2.520  1.00  0.00     0.148 A   
ATOM     12  F1  UNL     1       2.622  -4.358   1.413  1.00  0.00    -0.205 F   
BRANCH   7  13
ATOM     13  N1  UNL     1       1.722  -6.285   5.731  1.00  0.00     0.092 N   
ATOM     14  O1  UNL     1       1.034  -6.262   6.759  1.00  0.00    -0.138 OA  
ATOM     15  O2  UNL     1       2.652  -7.072   5.515  1.00  0.00    -0.138 OA  
ENDBRANCH   7  13
ENDBRANCH   1   6
BRANCH   3  16
ATOM     16  C7  UNL     1       0.558  -0.457  -1.389  1.00  0.00     0.117 C   
BRANCH  16  17
ATOM     17  N3  UNL     1      -0.732   0.216  -1.770  1.00  0.00     0.249 N   
ATOM     18  H5  UNL     1      -1.113   0.646  -0.913  1.00  0.00     0.199 HD  
ATOM     19  H6  UNL     1      -0.591   0.986  -2.431  1.00  0.00     0.199 HD  
BRANCH  17  20
ATOM     20  C8  UNL     1      -1.787  -0.687  -2.309  1.00  0.00     0.164 C   
BRANCH  20  21
ATOM     21  C9  UNL     1      -3.054   0.081  -2.558  1.00  0.00    -0.002 A   
ATOM     22  C10 UNL     1      -3.988   0.267  -1.510  1.00  0.00     0.012 A   
ATOM     23  C14 UNL     1      -3.293   0.667  -3.812  1.00  0.00     0.045 A   
ATOM     24  C11 UNL     1      -5.151   1.019  -1.710  1.00  0.00     0.037 A   
ATOM     25  C13 UNL     1      -4.450   1.401  -3.975  1.00  0.00     0.109 A   
ATOM     26  C12 UNL     1      -5.352   1.573  -2.955  1.00  0.00     0.108 A   
ATOM     27  O3  UNL     1      -4.831   2.031  -5.117  1.00  0.00    -0.316 OA  
ATOM     28  O4  UNL     1      -6.416   2.331  -3.326  1.00  0.00    -0.316 OA  
ATOM     29  C15 UNL     1      -6.096   2.601  -4.707  1.00  0.00     0.337 C   
ENDBRANCH  20  21
ENDBRANCH  17  20
ENDBRANCH  16  17
BRANCH  16  30
ATOM     30  C16 UNL     1       1.711   0.565  -1.328  1.00  0.00     0.043 C   
ATOM     31  C17 UNL     1       2.108   1.166  -2.680  1.00  0.00     0.010 C   
ATOM     32  C20 UNL     1       1.470   1.811  -0.473  1.00  0.00     0.010 C   
ATOM     33  C18 UNL     1       2.919   2.414  -2.331  1.00  0.00     0.001 C   
ATOM     34  C19 UNL     1       2.618   2.731  -0.867  1.00  0.00     0.001 C   
ENDBRANCH  16  30
ENDBRANCH   3  16
TORSDOF 7
