REMARK SMILES CC(C)[C@H]([NH2+]Cc1ccc2c(c1)OCO2)c1cn(Cc2cc(C(C)(C)C)no2)nn1
REMARK SMILES IDX 16 1 17 2 18 3 29 4 30 5 4 7 2 8 1 9 3 10 5 11 6 14 7 15
REMARK SMILES IDX 8 16 12 17 9 18 11 19 10 20 13 21 15 22 14 23 19 24 20 25
REMARK SMILES IDX 21 26 28 27 22 28 27 29 23 30 24 31 25 32 26 33
REMARK H PARENT 17 6 5 12 5 13
ROOT
ATOM     1   C13 UNL     1      -1.222   0.596  -0.788  1.00  0.00     0.127 A   
ATOM     2   C14 UNL     1      -0.656   1.363   0.205  1.00  0.00     0.046 A   
ATOM     3   N2  UNL     1      -1.349   1.008   1.331  1.00  0.00    -0.206 N   
ATOM     4   N4  UNL     1      -2.326   0.128   1.036  1.00  0.00    -0.076 NA  
ATOM     5   N5  UNL     1      -2.258  -0.132  -0.260  1.00  0.00    -0.132 NA  
ATOM     6   H18 UNL     1       0.189   2.038   0.234  1.00  0.00     0.083 HD  
ENDROOT
BRANCH   1   7
ATOM     7   C4  UNL     1      -0.808   0.386  -2.207  1.00  0.00     0.117 C   
BRANCH   7   8
ATOM     8   C2  UNL     1      -1.583   1.298  -3.195  1.00  0.00     0.037 C   
ATOM     9   C1  UNL     1      -3.069   0.952  -3.343  1.00  0.00     0.014 C   
ATOM     10  C3  UNL     1      -0.922   1.318  -4.580  1.00  0.00     0.014 C   
ENDBRANCH   7   8
BRANCH   7  11
ATOM     11  N1  UNL     1      -0.955  -1.067  -2.602  1.00  0.00     0.249 N   
ATOM     12  H9  UNL     1      -0.782  -1.184  -3.603  1.00  0.00     0.199 HD  
ATOM     13  H10 UNL     1      -1.934  -1.323  -2.423  1.00  0.00     0.199 HD  
BRANCH  11  14
ATOM     14  C5  UNL     1      -0.113  -2.049  -1.847  1.00  0.00     0.164 C   
BRANCH  14  15
ATOM     15  C6  UNL     1       1.363  -1.785  -1.953  1.00  0.00    -0.002 A   
ATOM     16  C7  UNL     1       2.093  -1.368  -0.813  1.00  0.00     0.012 A   
ATOM     17  C11 UNL     1       2.026  -1.924  -3.184  1.00  0.00     0.045 A   
ATOM     18  C8  UNL     1       3.459  -1.082  -0.896  1.00  0.00     0.037 A   
ATOM     19  C10 UNL     1       3.374  -1.633  -3.232  1.00  0.00     0.109 A   
ATOM     20  C9  UNL     1       4.071  -1.222  -2.122  1.00  0.00     0.108 A   
ATOM     21  O1  UNL     1       4.157  -1.704  -4.340  1.00  0.00    -0.316 OA  
ATOM     22  O2  UNL     1       5.381  -0.988  -2.392  1.00  0.00    -0.316 OA  
ATOM     23  C12 UNL     1       5.441  -1.329  -3.793  1.00  0.00     0.337 C   
ENDBRANCH  14  15
ENDBRANCH  11  14
ENDBRANCH   7  11
ENDBRANCH   1   7
BRANCH   3  24
ATOM     24  C15 UNL     1      -1.053   1.363   2.709  1.00  0.00     0.198 C   
BRANCH  24  25
ATOM     25  C16 UNL     1      -0.027   0.443   3.247  1.00  0.00     0.106 A   
ATOM     26  C17 UNL     1       0.007  -0.483   4.261  1.00  0.00     0.060 A   
ATOM     27  O3  UNL     1       1.183   0.461   2.626  1.00  0.00    -0.216 OA  
ATOM     28  C18 UNL     1       1.315  -1.036   4.198  1.00  0.00     0.076 A   
ATOM     29  N3  UNL     1       2.010  -0.480   3.195  1.00  0.00    -0.133 NA  
BRANCH  28  30
ATOM     30  C19 UNL     1       1.914  -2.116   5.083  1.00  0.00     0.007 C   
ATOM     31  C20 UNL     1       1.131  -3.432   4.904  1.00  0.00     0.017 C   
ATOM     32  C21 UNL     1       3.395  -2.393   4.745  1.00  0.00     0.017 C   
ATOM     33  C22 UNL     1       1.840  -1.687   6.562  1.00  0.00     0.017 C   
ENDBRANCH  28  30
ENDBRANCH  24  25
ENDBRANCH   3  24
TORSDOF 8
