REMARK SMILES Cc1cccc(Cn2cc([C@H](CC(C)C)[NH2+]Cc3ccc4c(c3)OCO4)nn2)c1N([O-])[O-]
REMARK SMILES IDX 8 1 9 2 10 3 27 4 28 5 7 7 6 8 2 9 3 10 29 11 4 12 5 13 1 14
REMARK SMILES IDX 30 15 31 16 32 17 11 18 12 19 13 20 14 21 15 22 16 23 17 26
REMARK SMILES IDX 18 27 19 28 23 29 20 30 22 31 21 32 24 33 26 34 25 35
REMARK H PARENT 9 6 16 24 16 25
ROOT
ATOM     1   N1  UNL     1       2.915  -1.142  -0.809  1.00  0.00    -0.208 N   
ATOM     2   C8  UNL     1       1.631  -1.592  -0.956  1.00  0.00     0.046 A   
ATOM     3   C9  UNL     1       1.089  -0.748  -1.899  1.00  0.00     0.127 A   
ATOM     4   N3  UNL     1       2.047   0.141  -2.311  1.00  0.00    -0.132 NA  
ATOM     5   N4  UNL     1       3.162  -0.117  -1.646  1.00  0.00    -0.076 NA  
ATOM     6   H9  UNL     1       1.228  -2.405  -0.366  1.00  0.00     0.083 HD  
ENDROOT
BRANCH   1   7
ATOM     7   C7  UNL     1       3.922  -1.601   0.136  1.00  0.00     0.171 C   
BRANCH   7   8
ATOM     8   C6  UNL     1       4.423  -0.503   1.054  1.00  0.00     0.000 A   
ATOM     9   C2  UNL     1       4.116   1.231   2.797  1.00  0.00    -0.022 A   
ATOM     10  C3  UNL     1       5.488   1.505   2.737  1.00  0.00     0.005 A   
ATOM     11  C23 UNL     1       3.602   0.233   1.942  1.00  0.00     0.125 A   
ATOM     12  C4  UNL     1       6.318   0.794   1.870  1.00  0.00     0.001 A   
ATOM     13  C5  UNL     1       5.795  -0.201   1.042  1.00  0.00     0.007 A   
ATOM     14  C1  UNL     1       3.256   2.019   3.747  1.00  0.00     0.046 C   
BRANCH  11  15
ATOM     15  N5  UNL     1       2.174  -0.042   1.977  1.00  0.00     0.093 N   
ATOM     16  O3  UNL     1       1.407   0.850   1.584  1.00  0.00    -0.138 OA  
ATOM     17  O4  UNL     1       1.825  -1.176   2.326  1.00  0.00    -0.138 OA  
ENDBRANCH  11  15
ENDBRANCH   7   8
ENDBRANCH   1   7
BRANCH   3  18
ATOM     18  C10 UNL     1      -0.301  -0.624  -2.424  1.00  0.00     0.114 C   
BRANCH  18  19
ATOM     19  C11 UNL     1      -0.443  -1.171  -3.858  1.00  0.00     0.064 C   
BRANCH  19  20
ATOM     20  C12 UNL     1      -0.173  -2.683  -4.012  1.00  0.00    -0.012 C   
ATOM     21  C13 UNL     1      -0.275  -3.076  -5.488  1.00  0.00     0.007 C   
ATOM     22  C14 UNL     1      -1.137  -3.535  -3.184  1.00  0.00     0.007 C   
ENDBRANCH  19  20
ENDBRANCH  18  19
BRANCH  18  23
ATOM     23  N2  UNL     1      -0.697   0.839  -2.470  1.00  0.00     0.249 N   
ATOM     24  H20 UNL     1      -1.527   0.964  -3.056  1.00  0.00     0.199 HD  
ATOM     25  H21 UNL     1       0.083   1.331  -2.929  1.00  0.00     0.199 HD  
BRANCH  23  26
ATOM     26  C15 UNL     1      -0.926   1.500  -1.149  1.00  0.00     0.164 C   
BRANCH  26  27
ATOM     27  C16 UNL     1      -2.174   1.011  -0.468  1.00  0.00    -0.002 A   
ATOM     28  C17 UNL     1      -3.450   1.410  -0.938  1.00  0.00     0.012 A   
ATOM     29  C21 UNL     1      -2.085   0.126   0.620  1.00  0.00     0.045 A   
ATOM     30  C18 UNL     1      -4.619   0.931  -0.337  1.00  0.00     0.037 A   
ATOM     31  C20 UNL     1      -3.257  -0.329   1.188  1.00  0.00     0.109 A   
ATOM     32  C19 UNL     1      -4.488   0.061   0.723  1.00  0.00     0.108 A   
ATOM     33  O1  UNL     1      -3.346  -1.193   2.232  1.00  0.00    -0.316 OA  
ATOM     34  O2  UNL     1      -5.508  -0.504   1.419  1.00  0.00    -0.316 OA  
ATOM     35  C22 UNL     1      -4.780  -1.277   2.397  1.00  0.00     0.337 C   
ENDBRANCH  26  27
ENDBRANCH  23  26
ENDBRANCH  18  23
ENDBRANCH   3  18
TORSDOF 9
