REMARK SMILES Cc1cc(Cn2cc([C@@H]([NH2+]Cc3ccc4c(c3)OCO4)C(C)C)nn2)cnc1Cl
REMARK SMILES IDX 6 1 7 2 8 3 24 4 25 5 5 7 4 8 2 9 3 10 28 11 27 12 26 13
REMARK SMILES IDX 1 14 29 15 9 16 10 17 11 20 12 21 13 22 17 23 14 24 16 25
REMARK SMILES IDX 15 26 18 27 20 28 19 29 21 30 22 31 23 32
REMARK H PARENT 7 6 10 18 10 19
ROOT
ATOM     1   N1  UNL     1      -1.416   1.926   0.962  1.00  0.00    -0.208 N   
ATOM     2   C6  UNL     1      -0.673   1.847  -0.185  1.00  0.00     0.046 A   
ATOM     3   C7  UNL     1      -1.181   0.742  -0.831  1.00  0.00     0.127 A   
ATOM     4   N3  UNL     1      -2.194   0.204  -0.077  1.00  0.00    -0.132 NA  
ATOM     5   N4  UNL     1      -2.333   0.941   1.012  1.00  0.00    -0.076 NA  
ATOM     6   H7  UNL     1       0.122   2.543  -0.413  1.00  0.00     0.083 HD  
ENDROOT
BRANCH   1   7
ATOM     7   C5  UNL     1      -1.334   2.916   2.022  1.00  0.00     0.171 C   
BRANCH   7   8
ATOM     8   C4  UNL     1      -0.317   2.524   3.054  1.00  0.00    -0.010 A   
ATOM     9   C2  UNL     1       0.347   1.259   5.020  1.00  0.00    -0.013 A   
ATOM     10  C3  UNL     1      -0.620   1.609   4.071  1.00  0.00     0.013 A   
ATOM     11  C21 UNL     1       1.599   1.853   4.891  1.00  0.00     0.131 A   
ATOM     12  N5  UNL     1       1.934   2.725   3.913  1.00  0.00    -0.244 NA  
ATOM     13  C20 UNL     1       0.972   3.044   3.026  1.00  0.00     0.118 A   
ATOM     14  C1  UNL     1       0.031   0.280   6.108  1.00  0.00     0.048 C   
ATOM     15  CL1 UNL     1       2.897   1.526   5.971  1.00  0.00    -0.062 Cl  
ENDBRANCH   7   8
ENDBRANCH   1   7
BRANCH   3  16
ATOM     16  C8  UNL     1      -0.786   0.066  -2.107  1.00  0.00     0.117 C   
BRANCH  16  17
ATOM     17  N2  UNL     1      -1.039  -1.421  -1.991  1.00  0.00     0.249 N   
ATOM     18  H9  UNL     1      -1.755  -1.526  -1.254  1.00  0.00     0.199 HD  
ATOM     19  H10 UNL     1      -1.466  -1.793  -2.843  1.00  0.00     0.199 HD  
BRANCH  17  20
ATOM     20  C9  UNL     1       0.133  -2.268  -1.629  1.00  0.00     0.164 C   
BRANCH  20  21
ATOM     21  C10 UNL     1       0.769  -1.912  -0.315  1.00  0.00    -0.002 A   
ATOM     22  C11 UNL     1       0.107  -2.189   0.905  1.00  0.00     0.012 A   
ATOM     23  C15 UNL     1       2.022  -1.273  -0.290  1.00  0.00     0.045 A   
ATOM     24  C12 UNL     1       0.679  -1.833   2.131  1.00  0.00     0.037 A   
ATOM     25  C14 UNL     1       2.556  -0.935   0.936  1.00  0.00     0.109 A   
ATOM     26  C13 UNL     1       1.905  -1.208   2.112  1.00  0.00     0.108 A   
ATOM     27  O1  UNL     1       3.747  -0.312   1.131  1.00  0.00    -0.316 OA  
ATOM     28  O2  UNL     1       2.610  -0.803   3.200  1.00  0.00    -0.316 OA  
ATOM     29  C16 UNL     1       3.784  -0.238   2.576  1.00  0.00     0.337 C   
ENDBRANCH  20  21
ENDBRANCH  17  20
ENDBRANCH  16  17
BRANCH  16  30
ATOM     30  C17 UNL     1      -1.525   0.653  -3.338  1.00  0.00     0.037 C   
ATOM     31  C18 UNL     1      -0.917   0.145  -4.651  1.00  0.00     0.014 C   
ATOM     32  C19 UNL     1      -3.039   0.412  -3.339  1.00  0.00     0.014 C   
ENDBRANCH  16  30
ENDBRANCH   3  16
TORSDOF 7
