REMARK SMILES COc1cc(Cn2cc([C@H](CC(C)C)[NH2+]Cc3ccc4c(c3)OCO4)nn2)ccc1C
REMARK SMILES IDX 7 1 8 2 9 3 26 4 27 5 6 7 5 8 3 9 4 10 30 11 29 12 28 13
REMARK SMILES IDX 31 14 2 15 1 16 10 17 11 18 12 19 13 20 14 21 15 22 16 25
REMARK SMILES IDX 17 26 18 27 22 28 19 29 21 30 20 31 23 32 25 33 24 34
REMARK H PARENT 8 6 15 23 15 24
ROOT
ATOM     1   N1  UNL     1      -0.050  -1.051  -2.324  1.00  0.00    -0.208 N   
ATOM     2   C6  UNL     1      -0.529   0.049  -1.669  1.00  0.00     0.046 A   
ATOM     3   C7  UNL     1       0.447   1.001  -1.859  1.00  0.00     0.127 A   
ATOM     4   N3  UNL     1       1.437   0.480  -2.650  1.00  0.00    -0.132 NA  
ATOM     5   N4  UNL     1       1.126  -0.777  -2.923  1.00  0.00    -0.076 NA  
ATOM     6   H7  UNL     1      -1.445   0.029  -1.095  1.00  0.00     0.083 HD  
ENDROOT
BRANCH   1   7
ATOM     7   C5  UNL     1      -0.571  -2.409  -2.288  1.00  0.00     0.169 C   
BRANCH   7   8
ATOM     8   C4  UNL     1      -0.397  -2.988  -0.904  1.00  0.00    -0.026 A   
ATOM     9   C2  UNL     1       1.070  -3.770   0.879  1.00  0.00     0.078 A   
ATOM     10  C3  UNL     1       0.886  -3.314  -0.430  1.00  0.00     0.039 A   
ATOM     11  C23 UNL     1      -0.033  -3.894   1.738  1.00  0.00    -0.021 A   
ATOM     12  C22 UNL     1      -1.315  -3.595   1.256  1.00  0.00     0.006 A   
ATOM     13  C21 UNL     1      -1.497  -3.147  -0.053  1.00  0.00     0.006 A   
ATOM     14  C24 UNL     1       0.144  -4.359   3.158  1.00  0.00     0.047 C   
BRANCH   9  15
ATOM     15  O1  UNL     1       2.298  -4.054   1.418  1.00  0.00    -0.349 OA  
ATOM     16  C1  UNL     1       3.276  -4.550   0.508  1.00  0.00     0.203 C   
ENDBRANCH   9  15
ENDBRANCH   7   8
ENDBRANCH   1   7
BRANCH   3  17
ATOM     17  C8  UNL     1       0.605   2.359  -1.269  1.00  0.00     0.114 C   
BRANCH  17  18
ATOM     18  C9  UNL     1       0.353   3.485  -2.290  1.00  0.00     0.064 C   
BRANCH  18  19
ATOM     19  C10 UNL     1      -1.074   3.528  -2.878  1.00  0.00    -0.012 C   
ATOM     20  C11 UNL     1      -1.164   4.634  -3.934  1.00  0.00     0.007 C   
ATOM     21  C12 UNL     1      -2.142   3.752  -1.806  1.00  0.00     0.007 C   
ENDBRANCH  18  19
ENDBRANCH  17  18
BRANCH  17  22
ATOM     22  N2  UNL     1       2.018   2.549  -0.747  1.00  0.00     0.249 N   
ATOM     23  H18 UNL     1       2.135   3.509  -0.410  1.00  0.00     0.199 HD  
ATOM     24  H19 UNL     1       2.646   2.427  -1.553  1.00  0.00     0.199 HD  
BRANCH  22  25
ATOM     25  C13 UNL     1       2.478   1.594   0.311  1.00  0.00     0.164 C   
BRANCH  25  26
ATOM     26  C14 UNL     1       1.599   1.568   1.530  1.00  0.00    -0.002 A   
ATOM     27  C15 UNL     1       0.870   0.397   1.851  1.00  0.00     0.012 A   
ATOM     28  C19 UNL     1       1.476   2.704   2.348  1.00  0.00     0.045 A   
ATOM     29  C16 UNL     1       0.018   0.359   2.960  1.00  0.00     0.037 A   
ATOM     30  C18 UNL     1       0.626   2.633   3.433  1.00  0.00     0.109 A   
ATOM     31  C17 UNL     1      -0.085   1.496   3.729  1.00  0.00     0.108 A   
ATOM     32  O2  UNL     1       0.385   3.641   4.312  1.00  0.00    -0.316 OA  
ATOM     33  O3  UNL     1      -0.862   1.644   4.833  1.00  0.00    -0.316 OA  
ATOM     34  C20 UNL     1      -0.543   2.999   5.217  1.00  0.00     0.337 C   
ENDBRANCH  25  26
ENDBRANCH  22  25
ENDBRANCH  17  22
ENDBRANCH   3  17
TORSDOF 9
