REMARK SMILES CC(C)C[C@H]([NH2+]Cc1ccc2c(c1)OCO2)c1cn(C[C@@H](O)c2ccsc2)nn1
REMARK SMILES IDX 17 1 18 2 19 3 28 4 29 5 5 7 4 8 2 9 1 10 3 11 6 12 7 15
REMARK SMILES IDX 8 16 9 17 13 18 10 19 12 20 11 21 14 22 16 23 15 24 20 25
REMARK SMILES IDX 21 26 22 27 23 29 24 30 27 31 25 32 26 33
REMARK H PARENT 18 6 6 13 6 14 22 28
ROOT
ATOM     1   C14 UNL     1      -1.227  -0.089  -0.664  1.00  0.00     0.127 A   
ATOM     2   C15 UNL     1      -2.484  -0.403  -0.195  1.00  0.00     0.045 A   
ATOM     3   N2  UNL     1      -3.322   0.352  -0.968  1.00  0.00    -0.209 N   
ATOM     4   N3  UNL     1      -2.631   1.026  -1.907  1.00  0.00    -0.076 NA  
ATOM     5   N4  UNL     1      -1.345   0.790  -1.711  1.00  0.00    -0.132 NA  
ATOM     6   H20 UNL     1      -2.850  -1.034   0.604  1.00  0.00     0.083 HD  
ENDROOT
BRANCH   1   7
ATOM     7   C5  UNL     1       0.133  -0.537  -0.230  1.00  0.00     0.114 C   
BRANCH   7   8
ATOM     8   C4  UNL     1       0.566   0.200   1.055  1.00  0.00     0.064 C   
BRANCH   8   9
ATOM     9   C2  UNL     1       1.892  -0.266   1.693  1.00  0.00    -0.012 C   
ATOM     10  C1  UNL     1       2.202   0.602   2.916  1.00  0.00     0.007 C   
ATOM     11  C3  UNL     1       1.858  -1.739   2.103  1.00  0.00     0.007 C   
ENDBRANCH   8   9
ENDBRANCH   7   8
BRANCH   7  12
ATOM     12  N1  UNL     1       1.138  -0.251  -1.321  1.00  0.00     0.249 N   
ATOM     13  H11 UNL     1       2.090  -0.206  -0.953  1.00  0.00     0.199 HD  
ATOM     14  H12 UNL     1       0.907   0.691  -1.673  1.00  0.00     0.199 HD  
BRANCH  12  15
ATOM     15  C6  UNL     1       1.113  -1.177  -2.491  1.00  0.00     0.164 C   
BRANCH  15  16
ATOM     16  C7  UNL     1       1.706  -2.521  -2.171  1.00  0.00    -0.002 A   
ATOM     17  C8  UNL     1       0.875  -3.660  -2.052  1.00  0.00     0.012 A   
ATOM     18  C12 UNL     1       3.090  -2.651  -1.963  1.00  0.00     0.045 A   
ATOM     19  C9  UNL     1       1.411  -4.911  -1.727  1.00  0.00     0.037 A   
ATOM     20  C11 UNL     1       3.585  -3.898  -1.641  1.00  0.00     0.109 A   
ATOM     21  C10 UNL     1       2.770  -4.997  -1.528  1.00  0.00     0.108 A   
ATOM     22  O1  UNL     1       4.889  -4.191  -1.403  1.00  0.00    -0.316 OA  
ATOM     23  O2  UNL     1       3.460  -6.122  -1.209  1.00  0.00    -0.316 OA  
ATOM     24  C13 UNL     1       4.811  -5.615  -1.163  1.00  0.00     0.337 C   
ENDBRANCH  15  16
ENDBRANCH  12  15
ENDBRANCH   7  12
ENDBRANCH   1   7
BRANCH   3  25
ATOM     25  C16 UNL     1      -4.767   0.440  -0.915  1.00  0.00     0.170 C   
BRANCH  25  26
ATOM     26  C17 UNL     1      -5.303   1.197   0.307  1.00  0.00     0.164 C   
BRANCH  26  27
ATOM     27  O3  UNL     1      -5.126   0.395   1.481  1.00  0.00    -0.387 OA  
ATOM     28  H24 UNL     1      -5.566   0.877   2.206  1.00  0.00     0.211 HD  
ENDBRANCH  26  27
BRANCH  26  29
ATOM     29  C18 UNL     1      -4.720   2.575   0.485  1.00  0.00    -0.011 A   
ATOM     30  C19 UNL     1      -5.181   3.747  -0.205  1.00  0.00     0.014 A   
ATOM     31  C21 UNL     1      -3.669   2.894   1.328  1.00  0.00     0.052 A   
ATOM     32  C20 UNL     1      -4.476   4.879   0.137  1.00  0.00     0.046 A   
ATOM     33  S1  UNL     1      -3.250   4.548   1.278  1.00  0.00    -0.106 S   
ENDBRANCH  26  29
ENDBRANCH  25  26
ENDBRANCH   3  25
TORSDOF 10
