REMARK SMILES CC(C)C[C@H]([NH2+]Cc1ccc2c(c1)OCO2)c1cn(C[C@H](O)c2ccsc2)nn1
REMARK SMILES IDX 17 1 18 2 19 3 28 4 29 5 5 7 4 8 2 9 1 10 3 11 6 12 7 15
REMARK SMILES IDX 8 16 9 17 13 18 10 19 12 20 11 21 14 22 16 23 15 24 20 25
REMARK SMILES IDX 21 26 22 27 23 29 24 30 27 31 25 32 26 33
REMARK H PARENT 18 6 6 13 6 14 22 28
ROOT
ATOM     1   C14 UNL     1      -0.433   0.989  -0.544  1.00  0.00     0.127 A   
ATOM     2   C15 UNL     1       0.321   2.069  -0.949  1.00  0.00     0.045 A   
ATOM     3   N2  UNL     1       0.244   2.937   0.105  1.00  0.00    -0.209 N   
ATOM     4   N3  UNL     1      -0.503   2.424   1.099  1.00  0.00    -0.076 NA  
ATOM     5   N4  UNL     1      -0.916   1.226   0.718  1.00  0.00    -0.132 NA  
ATOM     6   H20 UNL     1       0.898   2.284  -1.838  1.00  0.00     0.083 HD  
ENDROOT
BRANCH   1   7
ATOM     7   C5  UNL     1      -0.667  -0.336  -1.183  1.00  0.00     0.114 C   
BRANCH   7   8
ATOM     8   C4  UNL     1      -2.137  -0.595  -1.566  1.00  0.00     0.064 C   
BRANCH   8   9
ATOM     9   C2  UNL     1      -2.740   0.241  -2.717  1.00  0.00    -0.012 C   
ATOM     10  C1  UNL     1      -3.114   1.665  -2.306  1.00  0.00     0.007 C   
ATOM     11  C3  UNL     1      -1.865   0.252  -3.969  1.00  0.00     0.007 C   
ENDBRANCH   8   9
ENDBRANCH   7   8
BRANCH   7  12
ATOM     12  N1  UNL     1      -0.278  -1.422  -0.201  1.00  0.00     0.249 N   
ATOM     13  H11 UNL     1      -0.741  -1.198   0.693  1.00  0.00     0.199 HD  
ATOM     14  H12 UNL     1      -0.643  -2.335  -0.492  1.00  0.00     0.199 HD  
BRANCH  12  15
ATOM     15  C6  UNL     1       1.183  -1.548   0.065  1.00  0.00     0.164 C   
BRANCH  15  16
ATOM     16  C7  UNL     1       1.441  -2.615   1.090  1.00  0.00    -0.002 A   
ATOM     17  C8  UNL     1       1.444  -2.290   2.468  1.00  0.00     0.012 A   
ATOM     18  C12 UNL     1       1.626  -3.950   0.692  1.00  0.00     0.045 A   
ATOM     19  C9  UNL     1       1.643  -3.278   3.438  1.00  0.00     0.037 A   
ATOM     20  C11 UNL     1       1.816  -4.899   1.675  1.00  0.00     0.109 A   
ATOM     21  C10 UNL     1       1.827  -4.573   3.008  1.00  0.00     0.108 A   
ATOM     22  O1  UNL     1       2.002  -6.228   1.463  1.00  0.00    -0.316 OA  
ATOM     23  O2  UNL     1       2.028  -5.655   3.804  1.00  0.00    -0.316 OA  
ATOM     24  C13 UNL     1       2.154  -6.704   2.820  1.00  0.00     0.337 C   
ENDBRANCH  15  16
ENDBRANCH  12  15
ENDBRANCH   7  12
ENDBRANCH   1   7
BRANCH   3  25
ATOM     25  C16 UNL     1       0.920   4.204   0.263  1.00  0.00     0.170 C   
BRANCH  25  26
ATOM     26  C17 UNL     1       1.930   4.215   1.417  1.00  0.00     0.164 C   
BRANCH  26  27
ATOM     27  O3  UNL     1       2.580   5.489   1.421  1.00  0.00    -0.387 OA  
ATOM     28  H24 UNL     1       3.219   5.479   2.159  1.00  0.00     0.211 HD  
ENDBRANCH  26  27
BRANCH  26  29
ATOM     29  C18 UNL     1       2.952   3.107   1.314  1.00  0.00    -0.011 A   
ATOM     30  C19 UNL     1       4.053   3.082   0.393  1.00  0.00     0.014 A   
ATOM     31  C21 UNL     1       2.948   1.969   2.102  1.00  0.00     0.052 A   
ATOM     32  C20 UNL     1       4.814   1.939   0.507  1.00  0.00     0.046 A   
ATOM     33  S1  UNL     1       4.213   0.887   1.710  1.00  0.00    -0.106 S   
ENDBRANCH  26  29
ENDBRANCH  25  26
ENDBRANCH   3  25
TORSDOF 10
