REMARK SMILES C[C@H](Cc1ccccc1)n1cc([C@@H]([NH2+]Cc2ccc3c(c2)OCO3)C2CCCC2)nn1
REMARK SMILES IDX 10 1 11 2 12 3 30 4 31 5 2 7 1 8 3 9 4 10 5 11 9 12 6 13
REMARK SMILES IDX 8 14 7 15 13 16 14 17 15 20 16 21 17 22 21 23 18 24 20 25
REMARK SMILES IDX 19 26 22 27 24 28 23 29 25 30 26 31 29 32 27 33 28 34
REMARK H PARENT 11 6 14 18 14 19
ROOT
ATOM     1   N1  UNL     1      -0.204   0.113  -2.137  1.00  0.00    -0.209 N   
ATOM     2   C10 UNL     1       0.567   0.366  -1.036  1.00  0.00     0.046 A   
ATOM     3   C11 UNL     1      -0.297   0.194   0.022  1.00  0.00     0.127 A   
ATOM     4   N3  UNL     1      -1.547  -0.098  -0.461  1.00  0.00    -0.132 NA  
ATOM     5   N4  UNL     1      -1.481  -0.128  -1.782  1.00  0.00    -0.076 NA  
ATOM     6   H12 UNL     1       1.623   0.588  -1.105  1.00  0.00     0.083 HD  
ENDROOT
BRANCH   1   7
ATOM     7   C2  UNL     1       0.223   0.050  -3.529  1.00  0.00     0.101 C   
ATOM     8   C1  UNL     1      -0.597   1.002  -4.404  1.00  0.00     0.031 C   
BRANCH   7   9
ATOM     9   C3  UNL     1       0.170  -1.387  -4.079  1.00  0.00     0.060 C   
BRANCH   9  10
ATOM     10  C4  UNL     1       1.085  -2.336  -3.337  1.00  0.00    -0.046 A   
ATOM     11  C5  UNL     1       0.558  -3.255  -2.418  1.00  0.00     0.004 A   
ATOM     12  C9  UNL     1       2.471  -2.297  -3.542  1.00  0.00     0.004 A   
ATOM     13  C6  UNL     1       1.401  -4.120  -1.720  1.00  0.00     0.000 A   
ATOM     14  C8  UNL     1       3.313  -3.161  -2.839  1.00  0.00     0.000 A   
ATOM     15  C7  UNL     1       2.778  -4.071  -1.929  1.00  0.00     0.000 A   
ENDBRANCH   9  10
ENDBRANCH   7   9
ENDBRANCH   1   7
BRANCH   3  16
ATOM     16  C12 UNL     1      -0.082   0.295   1.496  1.00  0.00     0.117 C   
BRANCH  16  17
ATOM     17  N2  UNL     1      -1.331   0.836   2.162  1.00  0.00     0.249 N   
ATOM     18  H14 UNL     1      -2.107   0.244   1.834  1.00  0.00     0.199 HD  
ATOM     19  H15 UNL     1      -1.273   0.733   3.178  1.00  0.00     0.199 HD  
BRANCH  17  20
ATOM     20  C13 UNL     1      -1.690   2.252   1.847  1.00  0.00     0.164 C   
BRANCH  20  21
ATOM     21  C14 UNL     1      -0.686   3.239   2.373  1.00  0.00    -0.002 A   
ATOM     22  C15 UNL     1      -0.613   3.522   3.758  1.00  0.00     0.012 A   
ATOM     23  C19 UNL     1       0.215   3.863   1.492  1.00  0.00     0.045 A   
ATOM     24  C16 UNL     1       0.344   4.410   4.261  1.00  0.00     0.037 A   
ATOM     25  C18 UNL     1       1.148   4.731   2.020  1.00  0.00     0.109 A   
ATOM     26  C17 UNL     1       1.211   4.996   3.366  1.00  0.00     0.108 A   
ATOM     27  O1  UNL     1       2.091   5.405   1.312  1.00  0.00    -0.316 OA  
ATOM     28  O2  UNL     1       2.200   5.875   3.674  1.00  0.00    -0.316 OA  
ATOM     29  C20 UNL     1       2.739   6.155   2.364  1.00  0.00     0.337 C   
ENDBRANCH  20  21
ENDBRANCH  17  20
ENDBRANCH  16  17
BRANCH  16  30
ATOM     30  C21 UNL     1       0.243  -1.080   2.118  1.00  0.00     0.043 C   
ATOM     31  C22 UNL     1       0.471  -1.056   3.634  1.00  0.00     0.010 C   
ATOM     32  C25 UNL     1       1.566  -1.671   1.620  1.00  0.00     0.010 C   
ATOM     33  C23 UNL     1       1.256  -2.330   3.938  1.00  0.00     0.001 C   
ATOM     34  C24 UNL     1       1.870  -2.782   2.615  1.00  0.00     0.001 C   
ENDBRANCH  16  30
ENDBRANCH   3  16
TORSDOF 8
