REMARK SMILES C[C@@H](Cc1ccccc1)n1cc([C@@H]([NH2+]Cc2ccc3c(c2)OCO3)C2CCCC2)nn1
REMARK SMILES IDX 10 1 11 2 12 3 30 4 31 5 2 7 1 8 3 9 4 10 5 11 9 12 6 13
REMARK SMILES IDX 8 14 7 15 13 16 14 17 15 20 16 21 17 22 21 23 18 24 20 25
REMARK SMILES IDX 19 26 22 27 24 28 23 29 25 30 26 31 29 32 27 33 28 34
REMARK H PARENT 11 6 14 18 14 19
ROOT
ATOM     1   N1  UNL     1      -0.009  -2.503   0.989  1.00  0.00    -0.209 N   
ATOM     2   C10 UNL     1      -1.084  -1.657   0.950  1.00  0.00     0.046 A   
ATOM     3   C11 UNL     1      -0.703  -0.681   0.059  1.00  0.00     0.127 A   
ATOM     4   N3  UNL     1       0.542  -0.978  -0.434  1.00  0.00    -0.132 NA  
ATOM     5   N4  UNL     1       0.953  -2.098   0.137  1.00  0.00    -0.076 NA  
ATOM     6   H12 UNL     1      -1.949  -1.791   1.585  1.00  0.00     0.083 HD  
ENDROOT
BRANCH   1   7
ATOM     7   C2  UNL     1       0.213  -3.613   1.907  1.00  0.00     0.101 C   
ATOM     8   C1  UNL     1       0.432  -4.922   1.148  1.00  0.00     0.031 C   
BRANCH   7   9
ATOM     9   C3  UNL     1       1.379  -3.330   2.876  1.00  0.00     0.060 C   
BRANCH   9  10
ATOM     10  C4  UNL     1       1.225  -2.040   3.655  1.00  0.00    -0.046 A   
ATOM     11  C5  UNL     1       2.099  -0.967   3.422  1.00  0.00     0.004 A   
ATOM     12  C9  UNL     1       0.215  -1.895   4.615  1.00  0.00     0.004 A   
ATOM     13  C6  UNL     1       1.964   0.226   4.134  1.00  0.00     0.000 A   
ATOM     14  C8  UNL     1       0.077  -0.698   5.320  1.00  0.00     0.000 A   
ATOM     15  C7  UNL     1       0.951   0.361   5.079  1.00  0.00     0.000 A   
ENDBRANCH   9  10
ENDBRANCH   7   9
ENDBRANCH   1   7
BRANCH   3  16
ATOM     16  C12 UNL     1      -1.342   0.618  -0.307  1.00  0.00     0.117 C   
BRANCH  16  17
ATOM     17  N2  UNL     1      -0.293   1.697  -0.304  1.00  0.00     0.249 N   
ATOM     18  H14 UNL     1       0.527   1.308  -0.794  1.00  0.00     0.199 HD  
ATOM     19  H15 UNL     1      -0.578   2.525  -0.835  1.00  0.00     0.199 HD  
BRANCH  17  20
ATOM     20  C13 UNL     1       0.170   2.111   1.052  1.00  0.00     0.164 C   
BRANCH  20  21
ATOM     21  C14 UNL     1       1.360   3.021   0.950  1.00  0.00    -0.002 A   
ATOM     22  C15 UNL     1       2.656   2.472   0.794  1.00  0.00     0.012 A   
ATOM     23  C19 UNL     1       1.193   4.415   0.961  1.00  0.00     0.045 A   
ATOM     24  C16 UNL     1       3.776   3.300   0.664  1.00  0.00     0.037 A   
ATOM     25  C18 UNL     1       2.318   5.203   0.830  1.00  0.00     0.109 A   
ATOM     26  C17 UNL     1       3.573   4.662   0.686  1.00  0.00     0.108 A   
ATOM     27  O1  UNL     1       2.334   6.561   0.824  1.00  0.00    -0.316 OA  
ATOM     28  O2  UNL     1       4.536   5.613   0.573  1.00  0.00    -0.316 OA  
ATOM     29  C20 UNL     1       3.750   6.819   0.682  1.00  0.00     0.337 C   
ENDBRANCH  20  21
ENDBRANCH  17  20
ENDBRANCH  16  17
BRANCH  16  30
ATOM     30  C21 UNL     1      -2.059   0.555  -1.668  1.00  0.00     0.043 C   
ATOM     31  C22 UNL     1      -1.165   0.390  -2.904  1.00  0.00     0.010 C   
ATOM     32  C25 UNL     1      -2.928   1.789  -1.979  1.00  0.00     0.010 C   
ATOM     33  C23 UNL     1      -2.067   0.843  -4.041  1.00  0.00     0.001 C   
ATOM     34  C24 UNL     1      -2.750   2.075  -3.470  1.00  0.00     0.001 C   
ENDBRANCH  16  30
ENDBRANCH   3  16
TORSDOF 8
