REMARK SMILES CC(C)(C)[C@H]([NH2+]Cc1ccc2c(c1)OCO2)c1cn(CCc2ccccc2N([O-])[O-])nn1
REMARK SMILES IDX 17 1 18 2 19 3 31 4 32 5 5 7 2 8 1 9 3 10 4 11 6 12 7 15
REMARK SMILES IDX 8 16 9 17 13 18 10 19 12 20 11 21 14 22 16 23 15 24 20 25
REMARK SMILES IDX 21 26 22 27 23 28 27 29 24 30 26 31 25 32 28 33 29 34 30 35
REMARK H PARENT 18 6 6 13 6 14
ROOT
ATOM     1   C14 UNL     1      -1.472   0.553  -0.575  1.00  0.00     0.127 A   
ATOM     2   C15 UNL     1      -2.115  -0.546  -1.106  1.00  0.00     0.045 A   
ATOM     3   N2  UNL     1      -2.493  -0.132  -2.351  1.00  0.00    -0.212 N   
ATOM     4   N4  UNL     1      -2.152   1.150  -2.558  1.00  0.00    -0.076 NA  
ATOM     5   N5  UNL     1      -1.505   1.574  -1.488  1.00  0.00    -0.132 NA  
ATOM     6   H20 UNL     1      -2.273  -1.557  -0.755  1.00  0.00     0.083 HD  
ENDROOT
BRANCH   1   7
ATOM     7   C5  UNL     1      -0.672   0.718   0.683  1.00  0.00     0.120 C   
BRANCH   7   8
ATOM     8   C2  UNL     1      -1.283   1.722   1.720  1.00  0.00     0.010 C   
ATOM     9   C1  UNL     1      -2.720   1.284   2.085  1.00  0.00     0.017 C   
ATOM     10  C3  UNL     1      -1.336   3.176   1.210  1.00  0.00     0.017 C   
ATOM     11  C4  UNL     1      -0.460   1.703   3.029  1.00  0.00     0.017 C   
ENDBRANCH   7   8
BRANCH   7  12
ATOM     12  N1  UNL     1       0.734   1.119   0.287  1.00  0.00     0.250 N   
ATOM     13  H11 UNL     1       1.089   1.887   0.861  1.00  0.00     0.199 HD  
ATOM     14  H12 UNL     1       0.673   1.504  -0.673  1.00  0.00     0.199 HD  
BRANCH  12  15
ATOM     15  C6  UNL     1       1.743   0.023   0.244  1.00  0.00     0.164 C   
BRANCH  15  16
ATOM     16  C7  UNL     1       2.245  -0.354   1.611  1.00  0.00    -0.002 A   
ATOM     17  C8  UNL     1       1.818  -1.552   2.231  1.00  0.00     0.012 A   
ATOM     18  C12 UNL     1       3.132   0.497   2.293  1.00  0.00     0.045 A   
ATOM     19  C9  UNL     1       2.260  -1.896   3.514  1.00  0.00     0.037 A   
ATOM     20  C11 UNL     1       3.549   0.128   3.555  1.00  0.00     0.109 A   
ATOM     21  C10 UNL     1       3.126  -1.034   4.149  1.00  0.00     0.108 A   
ATOM     22  O1  UNL     1       4.399   0.837   4.344  1.00  0.00    -0.316 OA  
ATOM     23  O2  UNL     1       3.659  -1.207   5.386  1.00  0.00    -0.316 OA  
ATOM     24  C13 UNL     1       4.502  -0.040   5.490  1.00  0.00     0.337 C   
ENDBRANCH  15  16
ENDBRANCH  12  15
ENDBRANCH   7  12
ENDBRANCH   1   7
BRANCH   3  25
ATOM     25  C16 UNL     1      -3.032  -0.921  -3.437  1.00  0.00     0.139 C   
BRANCH  25  26
ATOM     26  C17 UNL     1      -1.945  -1.638  -4.248  1.00  0.00     0.059 C   
BRANCH  26  27
ATOM     27  C18 UNL     1      -1.078  -0.725  -5.097  1.00  0.00    -0.018 A   
ATOM     28  C19 UNL     1      -1.538  -0.441  -6.398  1.00  0.00     0.006 A   
ATOM     29  C23 UNL     1       0.123  -0.100  -4.686  1.00  0.00     0.121 A   
ATOM     30  C20 UNL     1      -0.836   0.415  -7.251  1.00  0.00     0.000 A   
ATOM     31  C22 UNL     1       0.828   0.764  -5.544  1.00  0.00     0.031 A   
ATOM     32  C21 UNL     1       0.345   1.016  -6.826  1.00  0.00     0.002 A   
BRANCH  29  33
ATOM     33  N3  UNL     1       0.702  -0.300  -3.357  1.00  0.00     0.092 N   
ATOM     34  O3  UNL     1       1.183   0.684  -2.765  1.00  0.00    -0.138 OA  
ATOM     35  O4  UNL     1       0.690  -1.439  -2.871  1.00  0.00    -0.138 OA  
ENDBRANCH  29  33
ENDBRANCH  26  27
ENDBRANCH  25  26
ENDBRANCH   3  25
TORSDOF 9
