REMARK SMILES CC(C)(C)[C@H]([NH2+]Cc1ccc2c(c1)OCO2)c1cn(CCc2ncc[nH]2)nn1
REMARK SMILES IDX 17 1 18 2 19 3 27 4 28 5 5 7 2 8 1 9 3 10 4 11 6 12 7 15
REMARK SMILES IDX 8 16 9 17 13 18 10 19 12 20 11 21 14 22 16 23 15 24 20 25
REMARK SMILES IDX 21 26 22 27 23 28 26 29 24 30 25 31
REMARK H PARENT 18 6 6 13 6 14 26 32
ROOT
ATOM     1   C14 UNL     1      -0.954   1.406  -0.459  1.00  0.00     0.127 A   
ATOM     2   C15 UNL     1      -1.993   1.051   0.369  1.00  0.00     0.045 A   
ATOM     3   N2  UNL     1      -3.070   0.983  -0.466  1.00  0.00    -0.212 N   
ATOM     4   N5  UNL     1      -2.731   1.331  -1.722  1.00  0.00    -0.076 NA  
ATOM     5   N6  UNL     1      -1.432   1.582  -1.733  1.00  0.00    -0.132 NA  
ATOM     6   H20 UNL     1      -2.055   0.779   1.415  1.00  0.00     0.083 HD  
ENDROOT
BRANCH   1   7
ATOM     7   C5  UNL     1       0.517   1.483  -0.200  1.00  0.00     0.120 C   
BRANCH   7   8
ATOM     8   C2  UNL     1       1.055   2.937   0.040  1.00  0.00     0.010 C   
ATOM     9   C1  UNL     1       0.288   3.597   1.210  1.00  0.00     0.017 C   
ATOM     10  C3  UNL     1       2.547   2.896   0.447  1.00  0.00     0.017 C   
ATOM     11  C4  UNL     1       0.919   3.843  -1.200  1.00  0.00     0.017 C   
ENDBRANCH   7   8
BRANCH   7  12
ATOM     12  N1  UNL     1       1.246   0.833  -1.361  1.00  0.00     0.250 N   
ATOM     13  H11 UNL     1       0.861   1.264  -2.213  1.00  0.00     0.199 HD  
ATOM     14  H12 UNL     1       2.246   1.039  -1.334  1.00  0.00     0.199 HD  
BRANCH  12  15
ATOM     15  C6  UNL     1       1.063  -0.644  -1.506  1.00  0.00     0.164 C   
BRANCH  15  16
ATOM     16  C7  UNL     1       1.707  -1.425  -0.395  1.00  0.00    -0.002 A   
ATOM     17  C8  UNL     1       3.114  -1.565  -0.332  1.00  0.00     0.012 A   
ATOM     18  C12 UNL     1       0.909  -1.998   0.611  1.00  0.00     0.045 A   
ATOM     19  C9  UNL     1       3.719  -2.262   0.720  1.00  0.00     0.037 A   
ATOM     20  C11 UNL     1       1.536  -2.678   1.633  1.00  0.00     0.109 A   
ATOM     21  C10 UNL     1       2.902  -2.805   1.687  1.00  0.00     0.108 A   
ATOM     22  O1  UNL     1       0.916  -3.283   2.680  1.00  0.00    -0.316 OA  
ATOM     23  O2  UNL     1       3.315  -3.508   2.773  1.00  0.00    -0.316 OA  
ATOM     24  C13 UNL     1       2.050  -3.830   3.390  1.00  0.00     0.337 C   
ENDBRANCH  15  16
ENDBRANCH  12  15
ENDBRANCH   7  12
ENDBRANCH   1   7
BRANCH   3  25
ATOM     25  C16 UNL     1      -4.427   0.587  -0.151  1.00  0.00     0.142 C   
BRANCH  25  26
ATOM     26  C17 UNL     1      -4.779  -0.808  -0.663  1.00  0.00     0.094 C   
BRANCH  26  27
ATOM     27  C18 UNL     1      -4.158  -1.896   0.153  1.00  0.00     0.099 A   
ATOM     28  N3  UNL     1      -2.970  -1.887   0.726  1.00  0.00    -0.244 NA  
ATOM     29  N4  UNL     1      -4.804  -3.086   0.395  1.00  0.00    -0.308 N   
ATOM     30  C19 UNL     1      -2.864  -3.090   1.379  1.00  0.00     0.128 A   
ATOM     31  C20 UNL     1      -3.989  -3.849   1.181  1.00  0.00     0.093 A   
ATOM     32  H27 UNL     1      -5.722  -3.345   0.058  1.00  0.00     0.153 HD  
ENDBRANCH  26  27
ENDBRANCH  25  26
ENDBRANCH   3  25
TORSDOF 8
