REMARK SMILES Oc1ccc(Cl)nc1-n1cc([C@@H]([NH2+]Cc2ccc3c(c2)OCO3)C2CCCC2)nn1
REMARK SMILES IDX 9 1 10 2 11 3 29 4 30 5 8 6 2 7 3 8 4 9 7 10 5 11 6 12 1 13
REMARK SMILES IDX 12 15 13 16 14 19 15 20 16 21 20 22 17 23 19 24 18 25 21 26
REMARK SMILES IDX 23 27 22 28 24 29 25 30 28 31 26 32 27 33
REMARK H PARENT 1 14 13 17 13 18
ROOT
ATOM     1   N2  UNL     1      -0.255  -0.895   3.427  1.00  0.00    -0.160 N   
ATOM     2   C6  UNL     1      -0.609  -1.614   2.302  1.00  0.00     0.137 A   
ATOM     3   C7  UNL     1      -0.115  -0.889   1.243  1.00  0.00     0.128 A   
ATOM     4   N4  UNL     1       0.495   0.239   1.722  1.00  0.00    -0.131 NA  
ATOM     5   N5  UNL     1       0.403   0.231   3.042  1.00  0.00    -0.069 NA  
ENDROOT
BRANCH   1   6
ATOM     6   C5  UNL     1      -0.515  -1.233   4.779  1.00  0.00     0.177 A   
ATOM     7   C1  UNL     1      -0.086  -0.406   5.822  1.00  0.00     0.114 A   
ATOM     8   C2  UNL     1      -0.372  -0.790   7.129  1.00  0.00     0.040 A   
ATOM     9   C3  UNL     1      -1.067  -1.974   7.364  1.00  0.00     0.044 A   
ATOM     10  N1  UNL     1      -1.199  -2.391   4.987  1.00  0.00    -0.216 NA  
ATOM     11  C4  UNL     1      -1.450  -2.725   6.270  1.00  0.00     0.131 A   
ATOM     12  CL1 UNL     1      -2.306  -4.197   6.462  1.00  0.00    -0.062 Cl  
BRANCH   7  13
ATOM     13  O1  UNL     1       0.599   0.766   5.686  1.00  0.00    -0.357 OA  
ATOM     14  H1  UNL     1       0.779   0.952   4.743  1.00  0.00     0.218 HD  
ENDBRANCH   7  13
ENDBRANCH   1   6
BRANCH   3  15
ATOM     15  C8  UNL     1      -0.165  -1.150  -0.230  1.00  0.00     0.117 C   
BRANCH  15  16
ATOM     16  N3  UNL     1      -0.056   0.137  -1.000  1.00  0.00     0.249 N   
ATOM     17  H6  UNL     1       0.311  -0.014  -1.945  1.00  0.00     0.199 HD  
ATOM     18  H7  UNL     1       0.645   0.724  -0.520  1.00  0.00     0.199 HD  
BRANCH  16  19
ATOM     19  C9  UNL     1      -1.309   0.936  -1.093  1.00  0.00     0.164 C   
BRANCH  19  20
ATOM     20  C10 UNL     1      -1.064   2.191  -1.881  1.00  0.00    -0.002 A   
ATOM     21  C11 UNL     1      -0.707   3.390  -1.220  1.00  0.00     0.012 A   
ATOM     22  C15 UNL     1      -1.123   2.164  -3.285  1.00  0.00     0.045 A   
ATOM     23  C12 UNL     1      -0.417   4.551  -1.946  1.00  0.00     0.037 A   
ATOM     24  C14 UNL     1      -0.822   3.323  -3.969  1.00  0.00     0.109 A   
ATOM     25  C13 UNL     1      -0.481   4.483  -3.318  1.00  0.00     0.108 A   
ATOM     26  O2  UNL     1      -0.805   3.461  -5.321  1.00  0.00    -0.316 OA  
ATOM     27  O3  UNL     1      -0.216   5.500  -4.179  1.00  0.00    -0.316 OA  
ATOM     28  C16 UNL     1      -0.422   4.849  -5.450  1.00  0.00     0.337 C   
ENDBRANCH  19  20
ENDBRANCH  16  19
ENDBRANCH  15  16
BRANCH  15  29
ATOM     29  C17 UNL     1       0.939  -2.132  -0.673  1.00  0.00     0.043 C   
ATOM     30  C18 UNL     1       0.792  -2.634  -2.124  1.00  0.00     0.010 C   
ATOM     31  C21 UNL     1       2.380  -1.612  -0.579  1.00  0.00     0.010 C   
ATOM     32  C19 UNL     1       2.198  -2.628  -2.723  1.00  0.00     0.001 C   
ATOM     33  C20 UNL     1       3.139  -2.519  -1.533  1.00  0.00     0.001 C   
ENDBRANCH  15  29
ENDBRANCH   3  15
TORSDOF 7
