REMARK SMILES Cc1cc(Cn2cc([C@H](CC(C)C)[NH2+]Cc3ccc4c(c3)OCO4)nn2)nn1C
REMARK SMILES IDX 6 1 7 2 8 3 25 4 26 5 5 7 4 8 2 9 3 10 28 11 27 12 1 13
REMARK SMILES IDX 29 14 9 15 10 16 11 17 12 18 13 19 14 20 15 23 16 24 17 25
REMARK SMILES IDX 21 26 18 27 20 28 19 29 22 30 24 31 23 32
REMARK H PARENT 7 6 14 21 14 22
ROOT
ATOM     1   N1  UNL     1       2.344   0.744  -0.826  1.00  0.00    -0.206 N   
ATOM     2   C6  UNL     1       1.202   0.612  -1.568  1.00  0.00     0.046 A   
ATOM     3   C7  UNL     1       0.802   1.909  -1.795  1.00  0.00     0.127 A   
ATOM     4   N3  UNL     1       1.723   2.768  -1.253  1.00  0.00    -0.132 NA  
ATOM     5   N4  UNL     1       2.663   2.045  -0.665  1.00  0.00    -0.076 NA  
ATOM     6   H7  UNL     1       0.766  -0.354  -1.784  1.00  0.00     0.083 HD  
ENDROOT
BRANCH   1   7
ATOM     7   C5  UNL     1       3.132  -0.306  -0.208  1.00  0.00     0.191 C   
BRANCH   7   8
ATOM     8   C4  UNL     1       2.512  -0.712   1.087  1.00  0.00     0.080 A   
ATOM     9   C2  UNL     1       2.100  -1.069   3.240  1.00  0.00     0.027 A   
ATOM     10  C3  UNL     1       2.998  -0.461   2.390  1.00  0.00     0.047 A   
ATOM     11  N6  UNL     1       1.157  -1.645   2.430  1.00  0.00    -0.233 N   
ATOM     12  N5  UNL     1       1.363  -1.406   1.118  1.00  0.00    -0.185 NA  
ATOM     13  C1  UNL     1       2.079  -1.163   4.721  1.00  0.00     0.063 C   
ATOM     14  C21 UNL     1       0.023  -2.441   2.842  1.00  0.00     0.159 C   
ENDBRANCH   7   8
ENDBRANCH   1   7
BRANCH   3  15
ATOM     15  C8  UNL     1      -0.453   2.445  -2.388  1.00  0.00     0.114 C   
BRANCH  15  16
ATOM     16  C9  UNL     1      -0.233   3.090  -3.769  1.00  0.00     0.064 C   
BRANCH  16  17
ATOM     17  C10 UNL     1       0.262   2.126  -4.868  1.00  0.00    -0.012 C   
ATOM     18  C11 UNL     1       0.513   2.905  -6.163  1.00  0.00     0.007 C   
ATOM     19  C12 UNL     1      -0.726   0.989  -5.136  1.00  0.00     0.007 C   
ENDBRANCH  16  17
ENDBRANCH  15  16
BRANCH  15  20
ATOM     20  N2  UNL     1      -1.039   3.518  -1.488  1.00  0.00     0.249 N   
ATOM     21  H18 UNL     1      -0.322   4.251  -1.406  1.00  0.00     0.199 HD  
ATOM     22  H19 UNL     1      -1.858   3.935  -1.938  1.00  0.00     0.199 HD  
BRANCH  20  23
ATOM     23  C13 UNL     1      -1.397   3.099  -0.097  1.00  0.00     0.164 C   
BRANCH  23  24
ATOM     24  C14 UNL     1      -2.409   1.989  -0.045  1.00  0.00    -0.002 A   
ATOM     25  C15 UNL     1      -2.018   0.689   0.358  1.00  0.00     0.012 A   
ATOM     26  C19 UNL     1      -3.741   2.223  -0.426  1.00  0.00     0.045 A   
ATOM     27  C16 UNL     1      -2.934  -0.367   0.371  1.00  0.00     0.037 A   
ATOM     28  C18 UNL     1      -4.620   1.159  -0.399  1.00  0.00     0.109 A   
ATOM     29  C17 UNL     1      -4.229  -0.099  -0.013  1.00  0.00     0.108 A   
ATOM     30  O1  UNL     1      -5.933   1.212  -0.746  1.00  0.00    -0.316 OA  
ATOM     31  O2  UNL     1      -5.247  -0.996  -0.064  1.00  0.00    -0.316 OA  
ATOM     32  C20 UNL     1      -6.336  -0.155  -0.499  1.00  0.00     0.337 C   
ENDBRANCH  23  24
ENDBRANCH  20  23
ENDBRANCH  15  20
ENDBRANCH   3  15
TORSDOF 8
