REMARK SMILES COc1cccc(-n2cc([C@@H]([NH2+]Cc3ccc4c(c3)OCO4)C(C)C)nn2)c1C
REMARK SMILES IDX 8 1 9 2 10 3 26 4 27 5 7 6 3 7 4 8 28 9 5 10 6 11 29 12 2 13
REMARK SMILES IDX 1 14 11 15 12 16 13 19 14 20 15 21 19 22 16 23 18 24 17 25
REMARK SMILES IDX 20 26 22 27 21 28 23 29 24 30 25 31
REMARK H PARENT 12 17 12 18
ROOT
ATOM     1   N1  UNL     1       2.586   0.078   0.773  1.00  0.00    -0.180 N   
ATOM     2   C7  UNL     1       1.717  -0.477   1.704  1.00  0.00     0.135 A   
ATOM     3   C8  UNL     1       0.507  -0.593   1.057  1.00  0.00     0.127 A   
ATOM     4   N3  UNL     1       0.633  -0.100  -0.207  1.00  0.00    -0.131 NA  
ATOM     5   N4  UNL     1       1.878   0.314  -0.361  1.00  0.00    -0.071 NA  
ENDROOT
BRANCH   1   6
ATOM     6   C6  UNL     1       3.972   0.397   0.924  1.00  0.00     0.063 A   
ATOM     7   C2  UNL     1       6.157   1.114   0.083  1.00  0.00     0.079 A   
ATOM     8   C3  UNL     1       6.672   1.050   1.380  1.00  0.00     0.034 A   
ATOM     9   C21 UNL     1       4.800   0.779  -0.169  1.00  0.00     0.003 A   
ATOM     10  C4  UNL     1       5.863   0.655   2.439  1.00  0.00     0.005 A   
ATOM     11  C5  UNL     1       4.527   0.331   2.217  1.00  0.00     0.026 A   
ATOM     12  C22 UNL     1       4.304   0.828  -1.598  1.00  0.00     0.049 C   
BRANCH   7  13
ATOM     13  O1  UNL     1       6.897   1.493  -1.008  1.00  0.00    -0.349 OA  
ATOM     14  C1  UNL     1       8.286   1.745  -0.824  1.00  0.00     0.203 C   
ENDBRANCH   7  13
ENDBRANCH   1   6
BRANCH   3  15
ATOM     15  C9  UNL     1      -0.812  -1.144   1.504  1.00  0.00     0.117 C   
BRANCH  15  16
ATOM     16  N2  UNL     1      -1.909  -0.700   0.575  1.00  0.00     0.249 N   
ATOM     17  H9  UNL     1      -2.711  -1.337   0.587  1.00  0.00     0.199 HD  
ATOM     18  H10 UNL     1      -1.526  -0.744  -0.383  1.00  0.00     0.199 HD  
BRANCH  16  19
ATOM     19  C10 UNL     1      -2.399   0.693   0.778  1.00  0.00     0.164 C   
BRANCH  19  20
ATOM     20  C11 UNL     1      -3.446   1.027  -0.245  1.00  0.00    -0.002 A   
ATOM     21  C12 UNL     1      -3.084   1.686  -1.443  1.00  0.00     0.012 A   
ATOM     22  C16 UNL     1      -4.781   0.626  -0.049  1.00  0.00     0.045 A   
ATOM     23  C13 UNL     1      -4.039   1.952  -2.432  1.00  0.00     0.037 A   
ATOM     24  C15 UNL     1      -5.694   0.900  -1.046  1.00  0.00     0.109 A   
ATOM     25  C14 UNL     1      -5.334   1.545  -2.203  1.00  0.00     0.108 A   
ATOM     26  O2  UNL     1      -7.011   0.565  -1.025  1.00  0.00    -0.316 OA  
ATOM     27  O3  UNL     1      -6.382   1.706  -3.052  1.00  0.00    -0.316 OA  
ATOM     28  C17 UNL     1      -7.450   1.092  -2.298  1.00  0.00     0.337 C   
ENDBRANCH  19  20
ENDBRANCH  16  19
ENDBRANCH  15  16
BRANCH  15  29
ATOM     29  C18 UNL     1      -0.793  -2.692   1.606  1.00  0.00     0.037 C   
ATOM     30  C19 UNL     1      -0.656  -3.400   0.253  1.00  0.00     0.014 C   
ATOM     31  C20 UNL     1      -2.024  -3.229   2.348  1.00  0.00     0.014 C   
ENDBRANCH  15  29
ENDBRANCH   3  15
TORSDOF 7
