REMARK SMILES CC(C)[C@H]([NH2+]Cc1ccc2c(c1)OCO2)c1cn([C@H](CO)c2cc[nH]c2)nn1
REMARK SMILES IDX 16 1 17 2 18 3 27 4 28 5 4 7 2 8 1 9 3 10 5 11 6 14 7 15
REMARK SMILES IDX 8 16 12 17 9 18 11 19 10 20 13 21 15 22 14 23 19 24 20 25
REMARK SMILES IDX 21 26 22 28 23 29 26 30 24 31 25 32
REMARK H PARENT 17 6 5 12 5 13 21 27 25 33
ROOT
ATOM     1   C13 UNL     1       0.015  -0.015  -0.971  1.00  0.00     0.127 A   
ATOM     2   C14 UNL     1      -1.227  -0.089  -0.383  1.00  0.00     0.046 A   
ATOM     3   N2  UNL     1      -1.472  -1.435  -0.285  1.00  0.00    -0.202 N   
ATOM     4   N4  UNL     1      -0.421  -2.141  -0.760  1.00  0.00    -0.075 NA  
ATOM     5   N5  UNL     1       0.488  -1.283  -1.190  1.00  0.00    -0.132 NA  
ATOM     6   H18 UNL     1      -1.935   0.652  -0.039  1.00  0.00     0.083 HD  
ENDROOT
BRANCH   1   7
ATOM     7   C4  UNL     1       0.876   1.157  -1.309  1.00  0.00     0.117 C   
BRANCH   7   8
ATOM     8   C2  UNL     1       0.688   1.688  -2.755  1.00  0.00     0.037 C   
ATOM     9   C1  UNL     1      -0.716   2.270  -2.963  1.00  0.00     0.014 C   
ATOM     10  C3  UNL     1       0.988   0.661  -3.853  1.00  0.00     0.014 C   
ENDBRANCH   7   8
BRANCH   7  11
ATOM     11  N1  UNL     1       2.337   0.799  -1.121  1.00  0.00     0.249 N   
ATOM     12  H9  UNL     1       2.480  -0.090  -1.619  1.00  0.00     0.199 HD  
ATOM     13  H10 UNL     1       2.935   1.502  -1.564  1.00  0.00     0.199 HD  
BRANCH  11  14
ATOM     14  C5  UNL     1       2.787   0.580   0.287  1.00  0.00     0.164 C   
BRANCH  14  15
ATOM     15  C6  UNL     1       2.727   1.827   1.126  1.00  0.00    -0.002 A   
ATOM     16  C7  UNL     1       1.753   1.952   2.146  1.00  0.00     0.012 A   
ATOM     17  C11 UNL     1       3.619   2.886   0.888  1.00  0.00     0.045 A   
ATOM     18  C8  UNL     1       1.661   3.118   2.913  1.00  0.00     0.037 A   
ATOM     19  C10 UNL     1       3.501   4.022   1.662  1.00  0.00     0.109 A   
ATOM     20  C9  UNL     1       2.549   4.136   2.645  1.00  0.00     0.108 A   
ATOM     21  O1  UNL     1       4.276   5.133   1.557  1.00  0.00    -0.316 OA  
ATOM     22  O2  UNL     1       2.606   5.333   3.284  1.00  0.00    -0.316 OA  
ATOM     23  C12 UNL     1       3.722   5.953   2.612  1.00  0.00     0.337 C   
ENDBRANCH  14  15
ENDBRANCH  11  14
ENDBRANCH   7  11
ENDBRANCH   1   7
BRANCH   3  24
ATOM     24  C15 UNL     1      -2.659  -2.086   0.275  1.00  0.00     0.156 C   
BRANCH  24  25
ATOM     25  C16 UNL     1      -2.300  -3.193   1.277  1.00  0.00     0.185 C   
BRANCH  25  26
ATOM     26  O3  UNL     1      -1.735  -2.629   2.466  1.00  0.00    -0.394 OA  
ATOM     27  H22 UNL     1      -1.576  -3.372   3.077  1.00  0.00     0.210 HD  
ENDBRANCH  25  26
ENDBRANCH  24  25
BRANCH  24  28
ATOM     28  C17 UNL     1      -3.564  -2.563  -0.832  1.00  0.00    -0.008 A   
ATOM     29  C18 UNL     1      -3.264  -3.519  -1.848  1.00  0.00     0.022 A   
ATOM     30  C20 UNL     1      -4.873  -2.168  -1.052  1.00  0.00     0.077 A   
ATOM     31  C19 UNL     1      -4.382  -3.665  -2.635  1.00  0.00     0.072 A   
ATOM     32  N3  UNL     1      -5.359  -2.843  -2.143  1.00  0.00    -0.327 N   
ATOM     33  H25 UNL     1      -6.294  -2.754  -2.523  1.00  0.00     0.152 HD  
ENDBRANCH  24  28
ENDBRANCH   3  24
TORSDOF 9
