REMARK SMILES CC(C)[C@H]([NH2+]Cc1ccc2c(c1)OCO2)c1cn([C@@H](CO)c2cc[nH]c2)nn1
REMARK SMILES IDX 16 1 17 2 18 3 27 4 28 5 4 7 2 8 1 9 3 10 5 11 6 14 7 15
REMARK SMILES IDX 8 16 12 17 9 18 11 19 10 20 13 21 15 22 14 23 19 24 20 25
REMARK SMILES IDX 21 26 22 28 23 29 26 30 24 31 25 32
REMARK H PARENT 17 6 5 12 5 13 21 27 25 33
ROOT
ATOM     1   C13 UNL     1      -0.220  -1.388  -1.560  1.00  0.00     0.127 A   
ATOM     2   C14 UNL     1      -1.245  -1.104  -2.431  1.00  0.00     0.046 A   
ATOM     3   N2  UNL     1      -1.585  -2.321  -2.960  1.00  0.00    -0.202 N   
ATOM     4   N4  UNL     1      -0.837  -3.302  -2.406  1.00  0.00    -0.075 NA  
ATOM     5   N5  UNL     1       0.011  -2.740  -1.561  1.00  0.00    -0.132 NA  
ATOM     6   H18 UNL     1      -1.750  -0.192  -2.721  1.00  0.00     0.083 HD  
ENDROOT
BRANCH   1   7
ATOM     7   C4  UNL     1       0.572  -0.498  -0.658  1.00  0.00     0.117 C   
BRANCH   7   8
ATOM     8   C2  UNL     1       1.765   0.170  -1.394  1.00  0.00     0.037 C   
ATOM     9   C1  UNL     1       2.365   1.316  -0.571  1.00  0.00     0.014 C   
ATOM     10  C3  UNL     1       2.873  -0.806  -1.804  1.00  0.00     0.014 C   
ENDBRANCH   7   8
BRANCH   7  11
ATOM     11  N1  UNL     1       1.066  -1.272   0.541  1.00  0.00     0.249 N   
ATOM     12  H9  UNL     1       1.825  -0.775   1.012  1.00  0.00     0.199 HD  
ATOM     13  H10 UNL     1       1.457  -2.150   0.171  1.00  0.00     0.199 HD  
BRANCH  11  14
ATOM     14  C5  UNL     1       0.029  -1.648   1.548  1.00  0.00     0.164 C   
BRANCH  14  15
ATOM     15  C6  UNL     1      -0.516  -0.462   2.294  1.00  0.00    -0.002 A   
ATOM     16  C7  UNL     1      -1.832  -0.006   2.043  1.00  0.00     0.012 A   
ATOM     17  C11 UNL     1       0.287   0.222   3.224  1.00  0.00     0.045 A   
ATOM     18  C8  UNL     1      -2.342   1.118   2.702  1.00  0.00     0.037 A   
ATOM     19  C10 UNL     1      -0.246   1.326   3.855  1.00  0.00     0.109 A   
ATOM     20  C9  UNL     1      -1.523   1.763   3.602  1.00  0.00     0.108 A   
ATOM     21  O1  UNL     1       0.395   2.098   4.771  1.00  0.00    -0.316 OA  
ATOM     22  O2  UNL     1      -1.848   2.864   4.327  1.00  0.00    -0.316 OA  
ATOM     23  C12 UNL     1      -0.637   3.061   5.088  1.00  0.00     0.337 C   
ENDBRANCH  14  15
ENDBRANCH  11  14
ENDBRANCH   7  11
ENDBRANCH   1   7
BRANCH   3  24
ATOM     24  C15 UNL     1      -2.611  -2.647  -3.950  1.00  0.00     0.156 C   
BRANCH  24  25
ATOM     25  C16 UNL     1      -3.998  -2.787  -3.298  1.00  0.00     0.185 C   
BRANCH  25  26
ATOM     26  O3  UNL     1      -4.406  -1.617  -2.580  1.00  0.00    -0.394 OA  
ATOM     27  H22 UNL     1      -5.344  -1.746  -2.347  1.00  0.00     0.210 HD  
ENDBRANCH  25  26
ENDBRANCH  24  25
BRANCH  24  28
ATOM     28  C17 UNL     1      -2.540  -1.704  -5.131  1.00  0.00    -0.008 A   
ATOM     29  C18 UNL     1      -1.627  -1.815  -6.223  1.00  0.00     0.022 A   
ATOM     30  C20 UNL     1      -3.314  -0.586  -5.396  1.00  0.00     0.077 A   
ATOM     31  C19 UNL     1      -1.879  -0.781  -7.095  1.00  0.00     0.072 A   
ATOM     32  N3  UNL     1      -2.912  -0.042  -6.588  1.00  0.00    -0.327 N   
ATOM     33  H25 UNL     1      -3.318   0.775  -7.029  1.00  0.00     0.152 HD  
ENDBRANCH  24  28
ENDBRANCH   3  24
TORSDOF 9
