REMARK SMILES CC(C)(C)[C@H]([NH2+]Cc1ccc2c(c1)OCO2)c1cn(CC(=O)c2ccccc2F)nn1
REMARK SMILES IDX 17 1 18 2 19 3 30 4 31 5 5 7 2 8 1 9 3 10 4 11 6 12 7 15
REMARK SMILES IDX 8 16 9 17 13 18 10 19 12 20 11 21 14 22 16 23 15 24 20 25
REMARK SMILES IDX 21 26 22 27 23 28 24 29 28 30 25 31 27 32 26 33 29 34
REMARK H PARENT 18 6 6 13 6 14
ROOT
ATOM     1   C14 UNL     1      -0.726  -0.602  -0.941  1.00  0.00     0.127 A   
ATOM     2   C15 UNL     1      -1.230   0.671  -1.095  1.00  0.00     0.046 A   
ATOM     3   N2  UNL     1      -2.560   0.465  -1.330  1.00  0.00    -0.204 N   
ATOM     4   N3  UNL     1      -2.850  -0.849  -1.358  1.00  0.00    -0.076 NA  
ATOM     5   N4  UNL     1      -1.737  -1.514  -1.104  1.00  0.00    -0.132 NA  
ATOM     6   H20 UNL     1      -0.803   1.661  -1.001  1.00  0.00     0.083 HD  
ENDROOT
BRANCH   1   7
ATOM     7   C5  UNL     1       0.629  -1.076  -0.501  1.00  0.00     0.120 C   
BRANCH   7   8
ATOM     8   C2  UNL     1       1.535  -1.618  -1.657  1.00  0.00     0.010 C   
ATOM     9   C1  UNL     1       1.680  -0.549  -2.763  1.00  0.00     0.017 C   
ATOM     10  C3  UNL     1       0.987  -2.907  -2.297  1.00  0.00     0.017 C   
ATOM     11  C4  UNL     1       2.961  -1.904  -1.123  1.00  0.00     0.017 C   
ENDBRANCH   7   8
BRANCH   7  12
ATOM     12  N1  UNL     1       0.413  -2.142   0.556  1.00  0.00     0.250 N   
ATOM     13  H11 UNL     1      -0.392  -2.703   0.229  1.00  0.00     0.199 HD  
ATOM     14  H12 UNL     1       1.205  -2.784   0.614  1.00  0.00     0.199 HD  
BRANCH  12  15
ATOM     15  C6  UNL     1       0.090  -1.640   1.925  1.00  0.00     0.164 C   
BRANCH  15  16
ATOM     16  C7  UNL     1       1.340  -1.293   2.691  1.00  0.00    -0.002 A   
ATOM     17  C8  UNL     1       1.781   0.051   2.793  1.00  0.00     0.012 A   
ATOM     18  C12 UNL     1       2.116  -2.318   3.257  1.00  0.00     0.045 A   
ATOM     19  C9  UNL     1       2.991   0.369   3.425  1.00  0.00     0.037 A   
ATOM     20  C11 UNL     1       3.303  -1.972   3.870  1.00  0.00     0.109 A   
ATOM     21  C10 UNL     1       3.735  -0.669   3.943  1.00  0.00     0.108 A   
ATOM     22  O1  UNL     1       4.178  -2.840   4.444  1.00  0.00    -0.316 OA  
ATOM     23  O2  UNL     1       4.938  -0.553   4.565  1.00  0.00    -0.316 OA  
ATOM     24  C13 UNL     1       5.185  -1.925   4.943  1.00  0.00     0.337 C   
ENDBRANCH  15  16
ENDBRANCH  12  15
ENDBRANCH   7  12
ENDBRANCH   1   7
BRANCH   3  25
ATOM     25  C16 UNL     1      -3.616   1.448  -1.470  1.00  0.00     0.215 C   
BRANCH  25  26
ATOM     26  C17 UNL     1      -4.297   1.682  -0.139  1.00  0.00     0.185 C   
ATOM     27  O3  UNL     1      -3.701   1.584   0.940  1.00  0.00    -0.292 OA  
BRANCH  26  28
ATOM     28  C18 UNL     1      -5.732   2.046  -0.131  1.00  0.00     0.055 A   
ATOM     29  C19 UNL     1      -6.524   1.679   0.963  1.00  0.00     0.015 A   
ATOM     30  C23 UNL     1      -6.303   2.767  -1.176  1.00  0.00     0.134 A   
ATOM     31  C20 UNL     1      -7.882   2.014   0.986  1.00  0.00     0.001 A   
ATOM     32  C22 UNL     1      -7.653   3.111  -1.153  1.00  0.00     0.040 A   
ATOM     33  C21 UNL     1      -8.446   2.733  -0.069  1.00  0.00     0.003 A   
ATOM     34  F1  UNL     1      -5.556   3.172  -2.213  1.00  0.00    -0.206 F   
ENDBRANCH  26  28
ENDBRANCH  25  26
ENDBRANCH   3  25
TORSDOF 8
