REMARK SMILES CC(C)(C)n1cc(Cn2cc([C@@H]([NH2+]Cc3ccc4c(c3)OCO4)C3CCCC3)nn2)cn1
REMARK SMILES IDX 9 1 10 2 11 3 29 4 30 5 8 7 7 8 5 9 6 10 32 11 31 12 2 13
REMARK SMILES IDX 1 14 3 15 4 16 12 17 13 18 14 21 15 22 16 23 20 24 17 25
REMARK SMILES IDX 19 26 18 27 21 28 23 29 22 30 24 31 25 32 28 33 26 34 27 35
REMARK H PARENT 10 6 13 19 13 20
ROOT
ATOM     1   N2  UNL     1       1.669  -0.897   0.823  1.00  0.00    -0.208 N   
ATOM     2   C8  UNL     1       0.834   0.162   1.063  1.00  0.00     0.046 A   
ATOM     3   C9  UNL     1      -0.428  -0.378   0.946  1.00  0.00     0.127 A   
ATOM     4   N4  UNL     1      -0.322  -1.714   0.659  1.00  0.00    -0.132 NA  
ATOM     5   N5  UNL     1       0.963  -2.019   0.580  1.00  0.00    -0.076 NA  
ATOM     6   H13 UNL     1       1.207   1.158   1.255  1.00  0.00     0.083 HD  
ENDROOT
BRANCH   1   7
ATOM     7   C7  UNL     1       3.122  -0.899   0.738  1.00  0.00     0.172 C   
BRANCH   7   8
ATOM     8   C6  UNL     1       3.560  -0.309  -0.554  1.00  0.00     0.007 A   
ATOM     9   N1  UNL     1       4.481   0.936  -2.136  1.00  0.00    -0.227 N   
ATOM     10  C5  UNL     1       4.346   0.804  -0.774  1.00  0.00     0.103 A   
ATOM     11  N6  UNL     1       3.774   0.002  -2.806  1.00  0.00    -0.189 NA  
ATOM     12  C24 UNL     1       3.264  -0.776  -1.854  1.00  0.00     0.138 A   
BRANCH   9  13
ATOM     13  C2  UNL     1       5.252   1.967  -2.857  1.00  0.00     0.047 C   
ATOM     14  C1  UNL     1       6.713   1.964  -2.366  1.00  0.00     0.034 C   
ATOM     15  C3  UNL     1       5.266   1.720  -4.382  1.00  0.00     0.034 C   
ATOM     16  C4  UNL     1       4.620   3.347  -2.598  1.00  0.00     0.034 C   
ENDBRANCH   9  13
ENDBRANCH   7   8
ENDBRANCH   1   7
BRANCH   3  17
ATOM     17  C10 UNL     1      -1.782   0.251   1.005  1.00  0.00     0.117 C   
BRANCH  17  18
ATOM     18  N3  UNL     1      -2.660  -0.354  -0.063  1.00  0.00     0.249 N   
ATOM     19  H15 UNL     1      -3.650  -0.141   0.089  1.00  0.00     0.199 HD  
ATOM     20  H16 UNL     1      -2.568  -1.378   0.020  1.00  0.00     0.199 HD  
BRANCH  18  21
ATOM     21  C11 UNL     1      -2.305   0.009  -1.464  1.00  0.00     0.164 C   
BRANCH  21  22
ATOM     22  C12 UNL     1      -3.254  -0.646  -2.427  1.00  0.00    -0.002 A   
ATOM     23  C13 UNL     1      -3.002  -1.959  -2.892  1.00  0.00     0.012 A   
ATOM     24  C17 UNL     1      -4.428   0.016  -2.826  1.00  0.00     0.045 A   
ATOM     25  C14 UNL     1      -3.900  -2.603  -3.751  1.00  0.00     0.037 A   
ATOM     26  C16 UNL     1      -5.291  -0.647  -3.673  1.00  0.00     0.109 A   
ATOM     27  C15 UNL     1      -5.036  -1.918  -4.123  1.00  0.00     0.108 A   
ATOM     28  O1  UNL     1      -6.463  -0.152  -4.151  1.00  0.00    -0.316 OA  
ATOM     29  O2  UNL     1      -6.014  -2.384  -4.941  1.00  0.00    -0.316 OA  
ATOM     30  C18 UNL     1      -6.903  -1.248  -4.985  1.00  0.00     0.337 C   
ENDBRANCH  21  22
ENDBRANCH  18  21
ENDBRANCH  17  18
BRANCH  17  31
ATOM     31  C19 UNL     1      -2.458   0.038   2.373  1.00  0.00     0.043 C   
ATOM     32  C20 UNL     1      -1.706   0.697   3.534  1.00  0.00     0.010 C   
ATOM     33  C23 UNL     1      -3.852   0.668   2.494  1.00  0.00     0.010 C   
ATOM     34  C21 UNL     1      -2.725   0.685   4.663  1.00  0.00     0.001 C   
ATOM     35  C22 UNL     1      -4.071   0.920   3.985  1.00  0.00     0.001 C   
ENDBRANCH  17  31
ENDBRANCH   3  17
TORSDOF 8
