REMARK SMILES Cc1ccc([C@@H](O)Cn2cc([C@@H]([NH2+]Cc3ccc4c(c3)OCO4)C3CCCC3)nn2)c(C)c1
REMARK SMILES IDX 9 1 10 2 11 3 29 4 30 5 8 7 6 8 5 9 2 10 3 11 33 12 4 13
REMARK SMILES IDX 31 14 1 15 32 16 7 17 12 19 13 20 14 23 15 24 16 25 20 26
REMARK SMILES IDX 17 27 19 28 18 29 21 30 23 31 22 32 24 33 25 34 28 35 26 36
REMARK SMILES IDX 27 37
REMARK H PARENT 10 6 7 18 13 21 13 22
ROOT
ATOM     1   N1  UNL     1       0.450   3.131   0.370  1.00  0.00    -0.209 N   
ATOM     2   C8  UNL     1       0.908   2.307  -0.620  1.00  0.00     0.045 A   
ATOM     3   C9  UNL     1      -0.231   1.709  -1.110  1.00  0.00     0.127 A   
ATOM     4   N3  UNL     1      -1.319   2.188  -0.423  1.00  0.00    -0.132 NA  
ATOM     5   N4  UNL     1      -0.887   3.045   0.488  1.00  0.00    -0.076 NA  
ATOM     6   H10 UNL     1       1.959   2.213  -0.854  1.00  0.00     0.083 HD  
ENDROOT
BRANCH   1   7
ATOM     7   C7  UNL     1       1.218   3.990   1.240  1.00  0.00     0.170 C   
BRANCH   7   8
ATOM     8   C6  UNL     1       1.532   3.345   2.595  1.00  0.00     0.164 C   
BRANCH   8   9
ATOM     9   C5  UNL     1       2.344   2.062   2.478  1.00  0.00    -0.015 A   
ATOM     10  C2  UNL     1       3.929  -0.263   2.175  1.00  0.00    -0.051 A   
ATOM     11  C3  UNL     1       4.453   0.992   1.866  1.00  0.00     0.004 A   
ATOM     12  C26 UNL     1       2.616  -0.350   2.656  1.00  0.00     0.007 A   
ATOM     13  C4  UNL     1       3.672   2.138   2.013  1.00  0.00     0.007 A   
ATOM     14  C24 UNL     1       1.810   0.795   2.803  1.00  0.00    -0.045 A   
ATOM     15  C1  UNL     1       4.787  -1.490   2.077  1.00  0.00     0.044 C   
ATOM     16  C25 UNL     1       0.411   0.625   3.333  1.00  0.00     0.045 C   
ENDBRANCH   8   9
BRANCH   8  17
ATOM     17  O1  UNL     1       2.266   4.288   3.385  1.00  0.00    -0.387 OA  
ATOM     18  H7  UNL     1       2.679   3.794   4.118  1.00  0.00     0.211 HD  
ENDBRANCH   8  17
ENDBRANCH   7   8
ENDBRANCH   1   7
BRANCH   3  19
ATOM     19  C10 UNL     1      -0.420   0.652  -2.150  1.00  0.00     0.117 C   
BRANCH  19  20
ATOM     20  N2  UNL     1      -1.657  -0.151  -1.824  1.00  0.00     0.249 N   
ATOM     21  H12 UNL     1      -2.391   0.528  -1.575  1.00  0.00     0.199 HD  
ATOM     22  H13 UNL     1      -2.010  -0.670  -2.633  1.00  0.00     0.199 HD  
BRANCH  20  23
ATOM     23  C11 UNL     1      -1.517  -1.092  -0.678  1.00  0.00     0.164 C   
BRANCH  23  24
ATOM     24  C12 UNL     1      -2.820  -1.794  -0.419  1.00  0.00    -0.002 A   
ATOM     25  C13 UNL     1      -3.786  -1.207   0.432  1.00  0.00     0.012 A   
ATOM     26  C17 UNL     1      -3.110  -3.009  -1.062  1.00  0.00     0.045 A   
ATOM     27  C14 UNL     1      -5.025  -1.823   0.645  1.00  0.00     0.037 A   
ATOM     28  C16 UNL     1      -4.338  -3.591  -0.827  1.00  0.00     0.109 A   
ATOM     29  C15 UNL     1      -5.270  -3.014   0.001  1.00  0.00     0.108 A   
ATOM     30  O2  UNL     1      -4.774  -4.760  -1.366  1.00  0.00    -0.316 OA  
ATOM     31  O3  UNL     1      -6.407  -3.751   0.092  1.00  0.00    -0.316 OA  
ATOM     32  C18 UNL     1      -6.075  -4.878  -0.749  1.00  0.00     0.337 C   
ENDBRANCH  23  24
ENDBRANCH  20  23
ENDBRANCH  19  20
BRANCH  19  33
ATOM     33  C19 UNL     1      -0.576   1.238  -3.566  1.00  0.00     0.043 C   
ATOM     34  C20 UNL     1       0.663   1.995  -4.054  1.00  0.00     0.010 C   
ATOM     35  C23 UNL     1      -0.743   0.179  -4.663  1.00  0.00     0.010 C   
ATOM     36  C21 UNL     1       0.445   2.118  -5.555  1.00  0.00     0.001 C   
ATOM     37  C22 UNL     1      -0.326   0.867  -5.962  1.00  0.00     0.001 C   
ENDBRANCH  19  33
ENDBRANCH   3  19
TORSDOF 9
