REMARK SMILES CC(C)C[C@H]([NH2+]Cc1ccc2c(c1)OCO2)c1cn(Cc2cncnc2)nn1
REMARK SMILES IDX 5 1 4 2 2 3 1 4 3 5 6 6 7 9 8 10 9 11 13 12 10 13 12 14
REMARK SMILES IDX 11 15 14 16 16 17 15 18 17 19 18 20 28 21 19 22 27 23 20 25
REMARK SMILES IDX 21 26 22 27 26 28 23 29 25 30 24 31
REMARK H PARENT 6 7 6 8 18 24
ROOT
ATOM     1   C5  UNL     1      -0.471  -0.129   0.720  1.00  0.00     0.114 C   
ENDROOT
BRANCH   1   2
ATOM     2   C4  UNL     1       0.052  -0.585   2.098  1.00  0.00     0.064 C   
BRANCH   2   3
ATOM     3   C2  UNL     1      -0.762  -1.680   2.819  1.00  0.00    -0.012 C   
ATOM     4   C1  UNL     1      -0.128  -1.976   4.182  1.00  0.00     0.007 C   
ATOM     5   C3  UNL     1      -2.230  -1.295   3.005  1.00  0.00     0.007 C   
ENDBRANCH   2   3
ENDBRANCH   1   2
BRANCH   1   6
ATOM     6   N1  UNL     1      -0.465  -1.301  -0.223  1.00  0.00     0.249 N   
ATOM     7   H11 UNL     1       0.515  -1.448  -0.510  1.00  0.00     0.199 HD  
ATOM     8   H12 UNL     1      -0.762  -2.168   0.232  1.00  0.00     0.199 HD  
BRANCH   6   9
ATOM     9   C6  UNL     1      -1.267  -1.122  -1.465  1.00  0.00     0.164 C   
BRANCH   9  10
ATOM     10  C7  UNL     1      -1.115  -2.317  -2.362  1.00  0.00    -0.002 A   
ATOM     11  C8  UNL     1      -0.037  -2.384  -3.278  1.00  0.00     0.012 A   
ATOM     12  C12 UNL     1      -2.005  -3.400  -2.258  1.00  0.00     0.045 A   
ATOM     13  C9  UNL     1       0.147  -3.509  -4.089  1.00  0.00     0.037 A   
ATOM     14  C11 UNL     1      -1.794  -4.493  -3.073  1.00  0.00     0.109 A   
ATOM     15  C10 UNL     1      -0.749  -4.547  -3.963  1.00  0.00     0.108 A   
ATOM     16  O1  UNL     1      -2.556  -5.618  -3.097  1.00  0.00    -0.316 OA  
ATOM     17  O2  UNL     1      -0.724  -5.710  -4.662  1.00  0.00    -0.316 OA  
ATOM     18  C13 UNL     1      -1.885  -6.381  -4.127  1.00  0.00     0.337 C   
ENDBRANCH   9  10
ENDBRANCH   6   9
ENDBRANCH   1   6
BRANCH   1  19
ATOM     19  C14 UNL     1       0.376   0.981   0.176  1.00  0.00     0.127 A   
ATOM     20  C15 UNL     1       0.375   2.335   0.429  1.00  0.00     0.046 A   
ATOM     21  N6  UNL     1       1.353   0.697  -0.744  1.00  0.00    -0.132 NA  
ATOM     22  N2  UNL     1       1.402   2.814  -0.338  1.00  0.00    -0.208 N   
ATOM     23  N5  UNL     1       1.960   1.828  -1.064  1.00  0.00    -0.076 NA  
ATOM     24  H20 UNL     1      -0.209   2.971   1.081  1.00  0.00     0.083 HD  
BRANCH  22  25
ATOM     25  C16 UNL     1       1.917   4.172  -0.416  1.00  0.00     0.172 C   
BRANCH  25  26
ATOM     26  C17 UNL     1       2.744   4.495   0.785  1.00  0.00     0.008 A   
ATOM     27  C18 UNL     1       2.333   5.393   1.750  1.00  0.00     0.120 A   
ATOM     28  C20 UNL     1       3.969   3.900   1.025  1.00  0.00     0.120 A   
ATOM     29  N3  UNL     1       3.042   5.675   2.858  1.00  0.00    -0.244 NA  
ATOM     30  N4  UNL     1       4.718   4.148   2.115  1.00  0.00    -0.244 NA  
ATOM     31  C19 UNL     1       4.216   5.038   2.984  1.00  0.00     0.221 A   
ENDBRANCH  25  26
ENDBRANCH  22  25
ENDBRANCH   1  19
TORSDOF 8
