REMARK SMILES CC(C)C[C@H]([NH2+]Cc1ccc2c(c1)OCO2)c1cn(Cc2ccc(F)cc2)nn1
REMARK SMILES IDX 17 1 18 2 19 3 28 4 29 5 5 7 4 8 2 9 1 10 3 11 6 12 7 15
REMARK SMILES IDX 8 16 9 17 13 18 10 19 12 20 11 21 14 22 16 23 15 24 20 25
REMARK SMILES IDX 21 26 22 27 27 28 23 29 26 30 24 31 25 32
REMARK H PARENT 18 6 6 13 6 14
ROOT
ATOM     1   C14 UNL     1       0.584   0.012  -1.216  1.00  0.00     0.127 A   
ATOM     2   C15 UNL     1       1.898  -0.397  -1.294  1.00  0.00     0.046 A   
ATOM     3   N2  UNL     1       2.578   0.744  -1.626  1.00  0.00    -0.208 N   
ATOM     4   N3  UNL     1       1.730   1.784  -1.757  1.00  0.00    -0.076 NA  
ATOM     5   N4  UNL     1       0.506   1.350  -1.510  1.00  0.00    -0.132 NA  
ATOM     6   H20 UNL     1       2.396  -1.345  -1.145  1.00  0.00     0.083 HD  
ENDROOT
BRANCH   1   7
ATOM     7   C5  UNL     1      -0.668  -0.726  -0.859  1.00  0.00     0.114 C   
BRANCH   7   8
ATOM     8   C4  UNL     1      -1.339  -1.306  -2.122  1.00  0.00     0.064 C   
BRANCH   8   9
ATOM     9   C2  UNL     1      -2.622  -2.135  -1.903  1.00  0.00    -0.012 C   
ATOM     10  C1  UNL     1      -2.417  -3.294  -0.928  1.00  0.00     0.007 C   
ATOM     11  C3  UNL     1      -3.121  -2.675  -3.250  1.00  0.00     0.007 C   
ENDBRANCH   8   9
ENDBRANCH   7   8
BRANCH   7  12
ATOM     12  N1  UNL     1      -1.625   0.208  -0.167  1.00  0.00     0.249 N   
ATOM     13  H11 UNL     1      -1.617   1.090  -0.704  1.00  0.00     0.199 HD  
ATOM     14  H12 UNL     1      -2.590  -0.129  -0.191  1.00  0.00     0.199 HD  
BRANCH  12  15
ATOM     15  C6  UNL     1      -1.268   0.543   1.241  1.00  0.00     0.164 C   
BRANCH  15  16
ATOM     16  C7  UNL     1      -2.244   1.532   1.812  1.00  0.00    -0.002 A   
ATOM     17  C8  UNL     1      -3.389   1.089   2.517  1.00  0.00     0.012 A   
ATOM     18  C12 UNL     1      -2.050   2.907   1.601  1.00  0.00     0.045 A   
ATOM     19  C9  UNL     1      -4.322   2.003   3.018  1.00  0.00     0.037 A   
ATOM     20  C11 UNL     1      -2.989   3.780   2.109  1.00  0.00     0.109 A   
ATOM     21  C10 UNL     1      -4.094   3.342   2.796  1.00  0.00     0.108 A   
ATOM     22  O1  UNL     1      -2.953   5.133   1.994  1.00  0.00    -0.316 OA  
ATOM     23  O2  UNL     1      -4.892   4.363   3.201  1.00  0.00    -0.316 OA  
ATOM     24  C13 UNL     1      -4.166   5.501   2.689  1.00  0.00     0.337 C   
ENDBRANCH  15  16
ENDBRANCH  12  15
ENDBRANCH   7  12
ENDBRANCH   1   7
BRANCH   3  25
ATOM     25  C16 UNL     1       4.007   0.916  -1.831  1.00  0.00     0.169 C   
BRANCH  25  26
ATOM     26  C17 UNL     1       4.661   1.505  -0.605  1.00  0.00    -0.028 A   
ATOM     27  C18 UNL     1       4.677   2.899  -0.418  1.00  0.00     0.008 A   
ATOM     28  C22 UNL     1       5.232   0.679   0.377  1.00  0.00     0.008 A   
ATOM     29  C19 UNL     1       5.255   3.454   0.725  1.00  0.00     0.039 A   
ATOM     30  C21 UNL     1       5.809   1.239   1.519  1.00  0.00     0.039 A   
ATOM     31  C20 UNL     1       5.814   2.620   1.682  1.00  0.00     0.123 A   
ATOM     32  F1  UNL     1       6.362   3.154   2.782  1.00  0.00    -0.207 F   
ENDBRANCH  25  26
ENDBRANCH   3  25
TORSDOF 8
