REMARK SMILES CC(C)C[C@H]([NH2+]Cc1ccc2c(c1)OCO2)c1cn(Cc2cncc(F)c2)nn1
REMARK SMILES IDX 17 1 18 2 19 3 28 4 29 5 5 7 4 8 2 9 1 10 3 11 6 12 7 15
REMARK SMILES IDX 8 16 9 17 13 18 10 19 12 20 11 21 14 22 16 23 15 24 20 25
REMARK SMILES IDX 21 26 22 27 27 28 23 29 25 30 24 31 26 32
REMARK H PARENT 18 6 6 13 6 14
ROOT
ATOM     1   C14 UNL     1      -0.653   1.229  -0.824  1.00  0.00     0.127 A   
ATOM     2   C15 UNL     1      -0.196   2.528  -0.776  1.00  0.00     0.046 A   
ATOM     3   N2  UNL     1      -0.521   2.946   0.486  1.00  0.00    -0.208 N   
ATOM     4   N4  UNL     1      -1.142   1.968   1.171  1.00  0.00    -0.076 NA  
ATOM     5   N5  UNL     1      -1.239   0.916   0.377  1.00  0.00    -0.132 NA  
ATOM     6   H20 UNL     1       0.321   3.163  -1.483  1.00  0.00     0.083 HD  
ENDROOT
BRANCH   1   7
ATOM     7   C5  UNL     1      -0.578   0.193  -1.901  1.00  0.00     0.114 C   
BRANCH   7   8
ATOM     8   C4  UNL     1      -1.785   0.315  -2.854  1.00  0.00     0.064 C   
BRANCH   8   9
ATOM     9   C2  UNL     1      -1.811  -0.644  -4.063  1.00  0.00    -0.012 C   
ATOM     10  C1  UNL     1      -3.054  -0.364  -4.913  1.00  0.00     0.007 C   
ATOM     11  C3  UNL     1      -0.557  -0.530  -4.930  1.00  0.00     0.007 C   
ENDBRANCH   8   9
ENDBRANCH   7   8
BRANCH   7  12
ATOM     12  N1  UNL     1      -0.562  -1.186  -1.300  1.00  0.00     0.249 N   
ATOM     13  H11 UNL     1      -1.318  -1.216  -0.600  1.00  0.00     0.199 HD  
ATOM     14  H12 UNL     1      -0.779  -1.911  -1.989  1.00  0.00     0.199 HD  
BRANCH  12  15
ATOM     15  C6  UNL     1       0.699  -1.566  -0.600  1.00  0.00     0.164 C   
BRANCH  15  16
ATOM     16  C7  UNL     1       0.581  -2.956  -0.041  1.00  0.00    -0.002 A   
ATOM     17  C8  UNL     1       1.023  -4.072  -0.791  1.00  0.00     0.012 A   
ATOM     18  C12 UNL     1      -0.032  -3.158   1.209  1.00  0.00     0.045 A   
ATOM     19  C9  UNL     1       0.864  -5.373  -0.302  1.00  0.00     0.037 A   
ATOM     20  C11 UNL     1      -0.177  -4.453   1.659  1.00  0.00     0.109 A   
ATOM     21  C10 UNL     1       0.259  -5.530   0.925  1.00  0.00     0.108 A   
ATOM     22  O1  UNL     1      -0.750  -4.824   2.834  1.00  0.00    -0.316 OA  
ATOM     23  O2  UNL     1       0.019  -6.713   1.549  1.00  0.00    -0.316 OA  
ATOM     24  C13 UNL     1      -0.625  -6.261   2.761  1.00  0.00     0.337 C   
ENDBRANCH  15  16
ENDBRANCH  12  15
ENDBRANCH   7  12
ENDBRANCH   1   7
BRANCH   3  25
ATOM     25  C16 UNL     1      -0.237   4.226   1.115  1.00  0.00     0.171 C   
BRANCH  25  26
ATOM     26  C17 UNL     1       1.217   4.334   1.475  1.00  0.00    -0.007 A   
ATOM     27  C18 UNL     1       1.776   3.510   2.454  1.00  0.00     0.116 A   
ATOM     28  C21 UNL     1       2.065   5.251   0.841  1.00  0.00     0.048 A   
ATOM     29  N3  UNL     1       3.082   3.530   2.803  1.00  0.00    -0.261 NA  
ATOM     30  C20 UNL     1       3.406   5.297   1.199  1.00  0.00     0.141 A   
ATOM     31  C19 UNL     1       3.871   4.432   2.172  1.00  0.00     0.150 A   
ATOM     32  F1  UNL     1       4.232   6.162   0.598  1.00  0.00    -0.205 F   
ENDBRANCH  25  26
ENDBRANCH   3  25
TORSDOF 8
