REMARK SMILES Cn1ccc2cccc(Cn3cc([C@@H]([NH2+]Cc4ccc5c(c4)OCO5)C(C)(C)C)nn3)c21
REMARK SMILES IDX 11 1 12 2 13 3 30 4 31 5 10 7 9 8 2 9 3 10 32 11 4 12 5 13
REMARK SMILES IDX 6 14 8 15 7 16 1 17 14 18 15 19 16 22 17 23 18 24 22 25
REMARK SMILES IDX 19 26 21 27 20 28 23 29 25 30 24 31 26 32 27 33 28 34 29 35
REMARK H PARENT 12 6 15 20 15 21
ROOT
ATOM     1   N2  UNL     1       2.161  -0.606   0.752  1.00  0.00    -0.208 N   
ATOM     2   C10 UNL     1       1.302  -1.508   0.185  1.00  0.00     0.046 A   
ATOM     3   C11 UNL     1       1.542  -1.405  -1.166  1.00  0.00     0.127 A   
ATOM     4   N4  UNL     1       2.492  -0.439  -1.379  1.00  0.00    -0.132 NA  
ATOM     5   N5  UNL     1       2.862   0.041  -0.203  1.00  0.00    -0.076 NA  
ATOM     6   H11 UNL     1       0.629  -2.120   0.771  1.00  0.00     0.083 HD  
ENDROOT
BRANCH   1   7
ATOM     7   C9  UNL     1       2.436  -0.325   2.156  1.00  0.00     0.171 C   
BRANCH   7   8
ATOM     8   C8  UNL     1       1.282  -0.672   3.067  1.00  0.00    -0.006 A   
ATOM     9   N1  UNL     1      -0.231   1.408   2.880  1.00  0.00    -0.310 N   
ATOM     10  C2  UNL     1      -1.453   1.753   3.398  1.00  0.00     0.075 A   
ATOM     11  C25 UNL     1       0.140   0.139   3.307  1.00  0.00     0.044 A   
ATOM     12  C3  UNL     1      -1.896   0.714   4.176  1.00  0.00     0.025 A   
ATOM     13  C4  UNL     1      -0.906  -0.302   4.137  1.00  0.00    -0.002 A   
ATOM     14  C5  UNL     1      -0.826  -1.563   4.756  1.00  0.00     0.010 A   
ATOM     15  C7  UNL     1       1.318  -1.928   3.722  1.00  0.00     0.007 A   
ATOM     16  C6  UNL     1       0.291  -2.366   4.548  1.00  0.00     0.001 A   
ATOM     17  C1  UNL     1       0.536   2.309   2.048  1.00  0.00     0.136 C   
ENDBRANCH   7   8
ENDBRANCH   1   7
BRANCH   3  18
ATOM     18  C12 UNL     1       0.920  -2.094  -2.344  1.00  0.00     0.120 C   
BRANCH  18  19
ATOM     19  N3  UNL     1       0.966  -1.140  -3.527  1.00  0.00     0.250 N   
ATOM     20  H13 UNL     1       1.391  -1.578  -4.348  1.00  0.00     0.199 HD  
ATOM     21  H14 UNL     1       1.628  -0.394  -3.256  1.00  0.00     0.199 HD  
BRANCH  19  22
ATOM     22  C13 UNL     1      -0.320  -0.505  -3.917  1.00  0.00     0.164 C   
BRANCH  22  23
ATOM     23  C14 UNL     1      -0.905   0.386  -2.857  1.00  0.00    -0.002 A   
ATOM     24  C15 UNL     1      -0.286   1.616  -2.530  1.00  0.00     0.012 A   
ATOM     25  C19 UNL     1      -2.069  -0.004  -2.172  1.00  0.00     0.045 A   
ATOM     26  C16 UNL     1      -0.815   2.446  -1.535  1.00  0.00     0.037 A   
ATOM     27  C18 UNL     1      -2.563   0.836  -1.197  1.00  0.00     0.109 A   
ATOM     28  C17 UNL     1      -1.954   2.026  -0.885  1.00  0.00     0.108 A   
ATOM     29  O1  UNL     1      -3.674   0.609  -0.450  1.00  0.00    -0.316 OA  
ATOM     30  O2  UNL     1      -2.601   2.696   0.103  1.00  0.00    -0.316 OA  
ATOM     31  C20 UNL     1      -3.716   1.811   0.351  1.00  0.00     0.337 C   
ENDBRANCH  22  23
ENDBRANCH  19  22
ENDBRANCH  18  19
BRANCH  18  32
ATOM     32  C21 UNL     1       1.585  -3.464  -2.720  1.00  0.00     0.010 C   
ATOM     33  C22 UNL     1       1.495  -4.444  -1.527  1.00  0.00     0.017 C   
ATOM     34  C23 UNL     1       0.823  -4.120  -3.896  1.00  0.00     0.017 C   
ATOM     35  C24 UNL     1       3.069  -3.321  -3.114  1.00  0.00     0.017 C   
ENDBRANCH  18  32
ENDBRANCH   3  18
TORSDOF 7
