REMARK SMILES CC(C)C[C@H]([NH2+]Cc1ccc2c(c1)OCO2)c1cn(C[C@H]2NCCc3ccsc32)nn1
REMARK SMILES IDX 17 1 18 2 19 3 30 4 31 5 5 7 4 8 2 9 1 10 3 11 6 12 7 15
REMARK SMILES IDX 8 16 9 17 13 18 10 19 12 20 11 21 14 22 16 23 15 24 20 25
REMARK SMILES IDX 21 26 22 27 29 28 23 29 25 30 28 31 24 32 26 33 27 34
REMARK H PARENT 18 6 6 13 6 14 22 35
ROOT
ATOM     1   C14 UNL     1      -1.056  -1.373   1.858  1.00  0.00     0.127 A   
ATOM     2   C15 UNL     1      -1.927  -0.305   1.860  1.00  0.00     0.045 A   
ATOM     3   N2  UNL     1      -3.035  -0.778   1.214  1.00  0.00    -0.210 N   
ATOM     4   N4  UNL     1      -2.861  -2.057   0.844  1.00  0.00    -0.076 NA  
ATOM     5   N5  UNL     1      -1.653  -2.432   1.229  1.00  0.00    -0.132 NA  
ATOM     6   H20 UNL     1      -1.866   0.708   2.225  1.00  0.00     0.083 HD  
ENDROOT
BRANCH   1   7
ATOM     7   C5  UNL     1       0.360  -1.508   2.321  1.00  0.00     0.114 C   
BRANCH   7   8
ATOM     8   C4  UNL     1       0.649  -0.664   3.579  1.00  0.00     0.064 C   
BRANCH   8   9
ATOM     9   C2  UNL     1       2.052  -0.823   4.205  1.00  0.00    -0.012 C   
ATOM     10  C1  UNL     1       2.165   0.078   5.440  1.00  0.00     0.007 C   
ATOM     11  C3  UNL     1       2.362  -2.269   4.593  1.00  0.00     0.007 C   
ENDBRANCH   8   9
ENDBRANCH   7   8
BRANCH   7  12
ATOM     12  N1  UNL     1       1.328  -1.124   1.236  1.00  0.00     0.249 N   
ATOM     13  H11 UNL     1       1.177  -0.143   0.975  1.00  0.00     0.199 HD  
ATOM     14  H12 UNL     1       2.291  -1.190   1.585  1.00  0.00     0.199 HD  
BRANCH  12  15
ATOM     15  C6  UNL     1       1.252  -1.951  -0.009  1.00  0.00     0.164 C   
BRANCH  15  16
ATOM     16  C7  UNL     1       2.370  -1.573  -0.942  1.00  0.00    -0.002 A   
ATOM     17  C8  UNL     1       2.190  -0.529  -1.882  1.00  0.00     0.012 A   
ATOM     18  C12 UNL     1       3.618  -2.215  -0.850  1.00  0.00     0.045 A   
ATOM     19  C9  UNL     1       3.233  -0.131  -2.724  1.00  0.00     0.037 A   
ATOM     20  C11 UNL     1       4.625  -1.800  -1.697  1.00  0.00     0.109 A   
ATOM     21  C10 UNL     1       4.439  -0.785  -2.604  1.00  0.00     0.108 A   
ATOM     22  O1  UNL     1       5.880  -2.320  -1.749  1.00  0.00    -0.316 OA  
ATOM     23  O2  UNL     1       5.555  -0.534  -3.338  1.00  0.00    -0.316 OA  
ATOM     24  C13 UNL     1       6.457  -1.537  -2.821  1.00  0.00     0.337 C   
ENDBRANCH  15  16
ENDBRANCH  12  15
ENDBRANCH   7  12
ENDBRANCH   1   7
BRANCH   3  25
ATOM     25  C16 UNL     1      -4.268  -0.080   0.914  1.00  0.00     0.158 C   
BRANCH  25  26
ATOM     26  C17 UNL     1      -4.517   0.120  -0.596  1.00  0.00     0.111 C   
ATOM     27  N3  UNL     1      -5.924   0.559  -0.828  1.00  0.00    -0.308 NA  
ATOM     28  C23 UNL     1      -3.562   1.117  -1.227  1.00  0.00     0.011 A   
ATOM     29  C18 UNL     1      -6.131   1.992  -0.525  1.00  0.00     0.086 C   
ATOM     30  C20 UNL     1      -3.893   2.413  -1.581  1.00  0.00    -0.035 A   
ATOM     31  S1  UNL     1      -1.951   0.734  -1.643  1.00  0.00    -0.101 S   
ATOM     32  C19 UNL     1      -5.288   2.935  -1.408  1.00  0.00     0.051 C   
ATOM     33  C21 UNL     1      -2.786   3.107  -2.156  1.00  0.00     0.012 A   
ATOM     34  C22 UNL     1      -1.664   2.312  -2.243  1.00  0.00     0.046 A   
ATOM     35  H24 UNL     1      -6.134   0.413  -1.819  1.00  0.00     0.123 HD  
ENDBRANCH  25  26
ENDBRANCH   3  25
TORSDOF 8
