REMARK SMILES CC(C)C[C@H]([NH2+]Cc1ccc2c(c1)OCO2)c1cn(C[C@@H]2NCCc3ccsc32)nn1
REMARK SMILES IDX 17 1 18 2 19 3 30 4 31 5 5 7 4 8 2 9 1 10 3 11 6 12 7 15
REMARK SMILES IDX 8 16 9 17 13 18 10 19 12 20 11 21 14 22 16 23 15 24 20 25
REMARK SMILES IDX 21 26 22 27 29 28 23 29 25 30 28 31 24 32 26 33 27 34
REMARK H PARENT 18 6 6 13 6 14 22 35
ROOT
ATOM     1   C14 UNL     1       2.086   0.095   1.599  1.00  0.00     0.127 A   
ATOM     2   C15 UNL     1       2.240  -0.654   0.453  1.00  0.00     0.045 A   
ATOM     3   N2  UNL     1       2.627  -1.881   0.914  1.00  0.00    -0.210 N   
ATOM     4   N4  UNL     1       2.748  -1.877   2.254  1.00  0.00    -0.076 NA  
ATOM     5   N5  UNL     1       2.412  -0.674   2.687  1.00  0.00    -0.132 NA  
ATOM     6   H20 UNL     1       2.085  -0.450  -0.597  1.00  0.00     0.083 HD  
ENDROOT
BRANCH   1   7
ATOM     7   C5  UNL     1       1.598   1.491   1.808  1.00  0.00     0.114 C   
BRANCH   7   8
ATOM     8   C4  UNL     1       2.782   2.473   1.912  1.00  0.00     0.064 C   
BRANCH   8   9
ATOM     9   C2  UNL     1       2.423   3.969   2.046  1.00  0.00    -0.012 C   
ATOM     10  C1  UNL     1       1.545   4.469   0.899  1.00  0.00     0.007 C   
ATOM     11  C3  UNL     1       3.708   4.800   2.113  1.00  0.00     0.007 C   
ENDBRANCH   8   9
ENDBRANCH   7   8
BRANCH   7  12
ATOM     12  N1  UNL     1       0.782   1.562   3.076  1.00  0.00     0.249 N   
ATOM     13  H11 UNL     1       1.343   1.091   3.801  1.00  0.00     0.199 HD  
ATOM     14  H12 UNL     1       0.648   2.530   3.376  1.00  0.00     0.199 HD  
BRANCH  12  15
ATOM     15  C6  UNL     1      -0.551   0.887   3.037  1.00  0.00     0.164 C   
BRANCH  15  16
ATOM     16  C7  UNL     1      -1.548   1.636   2.196  1.00  0.00    -0.002 A   
ATOM     17  C8  UNL     1      -2.147   2.823   2.683  1.00  0.00     0.012 A   
ATOM     18  C12 UNL     1      -1.863   1.183   0.904  1.00  0.00     0.045 A   
ATOM     19  C9  UNL     1      -3.044   3.551   1.893  1.00  0.00     0.037 A   
ATOM     20  C11 UNL     1      -2.751   1.924   0.152  1.00  0.00     0.109 A   
ATOM     21  C10 UNL     1      -3.324   3.075   0.631  1.00  0.00     0.108 A   
ATOM     22  O1  UNL     1      -3.154   1.629  -1.112  1.00  0.00    -0.316 OA  
ATOM     23  O2  UNL     1      -4.162   3.650  -0.268  1.00  0.00    -0.316 OA  
ATOM     24  C13 UNL     1      -4.077   2.714  -1.364  1.00  0.00     0.337 C   
ENDBRANCH  15  16
ENDBRANCH  12  15
ENDBRANCH   7  12
ENDBRANCH   1   7
BRANCH   3  25
ATOM     25  C16 UNL     1       2.909  -3.081   0.152  1.00  0.00     0.158 C   
BRANCH  25  26
ATOM     26  C17 UNL     1       1.874  -4.208   0.367  1.00  0.00     0.111 C   
ATOM     27  N3  UNL     1       2.375  -5.511  -0.150  1.00  0.00    -0.308 NA  
ATOM     28  C23 UNL     1       0.544  -3.893  -0.291  1.00  0.00     0.011 A   
ATOM     29  C18 UNL     1       2.331  -5.607  -1.620  1.00  0.00     0.086 C   
ATOM     30  C20 UNL     1       0.103  -4.447  -1.480  1.00  0.00    -0.035 A   
ATOM     31  S1  UNL     1      -0.615  -2.845   0.394  1.00  0.00    -0.101 S   
ATOM     32  C19 UNL     1       0.900  -5.501  -2.188  1.00  0.00     0.051 C   
ATOM     33  C21 UNL     1      -1.174  -3.940  -1.861  1.00  0.00     0.012 A   
ATOM     34  C22 UNL     1      -1.673  -3.049  -0.935  1.00  0.00     0.046 A   
ATOM     35  H24 UNL     1       3.320  -5.690   0.188  1.00  0.00     0.123 HD  
ENDBRANCH  25  26
ENDBRANCH   3  25
TORSDOF 8
