REMARK SMILES CC(C)(C)[C@H]([NH2+]Cc1ccc2c(c1)OCO2)c1cn(-c2cncc(F)c2)nn1
REMARK SMILES IDX 5 1 2 2 1 3 3 4 4 5 6 6 7 9 8 10 9 11 13 12 10 13 12 14
REMARK SMILES IDX 11 15 14 16 16 17 15 18 17 19 18 20 28 21 19 22 27 23 20 24
REMARK SMILES IDX 21 25 26 26 22 27 24 28 23 29 25 30
REMARK H PARENT 6 7 6 8
ROOT
ATOM     1   C5  UNL     1      -1.633   0.356   2.416  1.00  0.00     0.120 C   
ENDROOT
BRANCH   1   2
ATOM     2   C2  UNL     1      -2.246   1.722   2.879  1.00  0.00     0.010 C   
ATOM     3   C1  UNL     1      -3.303   1.482   3.983  1.00  0.00     0.017 C   
ATOM     4   C3  UNL     1      -2.977   2.398   1.696  1.00  0.00     0.017 C   
ATOM     5   C4  UNL     1      -1.190   2.705   3.421  1.00  0.00     0.017 C   
ENDBRANCH   1   2
BRANCH   1   6
ATOM     6   N1  UNL     1      -0.878  -0.311   3.556  1.00  0.00     0.250 N   
ATOM     7   H11 UNL     1       0.115  -0.058   3.423  1.00  0.00     0.199 HD  
ATOM     8   H12 UNL     1      -1.137   0.087   4.461  1.00  0.00     0.199 HD  
BRANCH   6   9
ATOM     9   C6  UNL     1      -0.974  -1.801   3.645  1.00  0.00     0.164 C   
BRANCH   9  10
ATOM     10  C7  UNL     1      -0.500  -2.526   2.415  1.00  0.00    -0.002 A   
ATOM     11  C8  UNL     1      -1.431  -3.171   1.563  1.00  0.00     0.012 A   
ATOM     12  C12 UNL     1       0.863  -2.524   2.069  1.00  0.00     0.045 A   
ATOM     13  C9  UNL     1      -1.017  -3.773   0.369  1.00  0.00     0.037 A   
ATOM     14  C11 UNL     1       1.235  -3.121   0.882  1.00  0.00     0.109 A   
ATOM     15  C10 UNL     1       0.322  -3.721   0.052  1.00  0.00     0.108 A   
ATOM     16  O1  UNL     1       2.498  -3.166   0.382  1.00  0.00    -0.316 OA  
ATOM     17  O2  UNL     1       0.893  -4.218  -1.075  1.00  0.00    -0.316 OA  
ATOM     18  C13 UNL     1       2.284  -3.898  -0.846  1.00  0.00     0.337 C   
ENDBRANCH   9  10
ENDBRANCH   6   9
ENDBRANCH   1   6
BRANCH   1  19
ATOM     19  C14 UNL     1      -0.705   0.460   1.242  1.00  0.00     0.128 A   
ATOM     20  C15 UNL     1      -0.867   0.111  -0.081  1.00  0.00     0.135 A   
ATOM     21  N5  UNL     1       0.596   0.823   1.452  1.00  0.00    -0.131 NA  
ATOM     22  N2  UNL     1       0.395   0.215  -0.632  1.00  0.00    -0.179 N   
ATOM     23  N4  UNL     1       1.247   0.692   0.309  1.00  0.00    -0.071 NA  
BRANCH  22  24
ATOM     24  C16 UNL     1       0.834  -0.154  -1.919  1.00  0.00     0.079 A   
ATOM     25  C17 UNL     1       2.182  -0.034  -2.252  1.00  0.00     0.137 A   
ATOM     26  C20 UNL     1      -0.040  -0.673  -2.878  1.00  0.00     0.068 A   
ATOM     27  N3  UNL     1       2.694  -0.401  -3.452  1.00  0.00    -0.260 NA  
ATOM     28  C19 UNL     1       0.471  -1.045  -4.115  1.00  0.00     0.143 A   
ATOM     29  C18 UNL     1       1.823  -0.896  -4.363  1.00  0.00     0.150 A   
ATOM     30  F1  UNL     1      -0.344  -1.545  -5.051  1.00  0.00    -0.205 F   
ENDBRANCH  22  24
ENDBRANCH   1  19
TORSDOF 6
