REMARK SMILES CC(C)[C@H]([NH2+]Cc1ccc2c(c1)OCO2)c1cn(Cc2ccc(F)c(N([O-])[O-])c2)nn1
REMARK SMILES IDX 16 1 17 2 18 3 30 4 31 5 4 7 2 8 1 9 3 10 5 11 6 14 7 15
REMARK SMILES IDX 8 16 12 17 9 18 11 19 10 20 13 21 15 22 14 23 19 24 20 25
REMARK SMILES IDX 21 26 29 27 22 28 25 29 23 30 24 31 26 32 27 33 28 34
REMARK H PARENT 17 6 5 12 5 13
ROOT
ATOM     1   C13 UNL     1       0.436  -0.875  -1.224  1.00  0.00     0.127 A   
ATOM     2   C14 UNL     1      -0.769  -0.209  -1.163  1.00  0.00     0.046 A   
ATOM     3   N2  UNL     1      -1.696  -1.209  -1.069  1.00  0.00    -0.208 N   
ATOM     4   N4  UNL     1      -1.103  -2.418  -1.101  1.00  0.00    -0.076 NA  
ATOM     5   N5  UNL     1       0.202  -2.226  -1.210  1.00  0.00    -0.132 NA  
ATOM     6   H18 UNL     1      -1.038   0.839  -1.134  1.00  0.00     0.083 HD  
ENDROOT
BRANCH   1   7
ATOM     7   C4  UNL     1       1.835  -0.350  -1.214  1.00  0.00     0.117 C   
BRANCH   7   8
ATOM     8   C2  UNL     1       2.364  -0.063  -2.647  1.00  0.00     0.037 C   
ATOM     9   C1  UNL     1       3.651   0.770  -2.622  1.00  0.00     0.014 C   
ATOM     10  C3  UNL     1       2.581  -1.316  -3.502  1.00  0.00     0.014 C   
ENDBRANCH   7   8
BRANCH   7  11
ATOM     11  N1  UNL     1       2.788  -1.266  -0.478  1.00  0.00     0.249 N   
ATOM     12  H9  UNL     1       3.735  -0.879  -0.509  1.00  0.00     0.199 HD  
ATOM     13  H10 UNL     1       2.801  -2.159  -0.985  1.00  0.00     0.199 HD  
BRANCH  11  14
ATOM     14  C5  UNL     1       2.458  -1.601   0.946  1.00  0.00     0.164 C   
BRANCH  14  15
ATOM     15  C6  UNL     1       2.150  -0.409   1.808  1.00  0.00    -0.002 A   
ATOM     16  C7  UNL     1       3.173   0.479   2.213  1.00  0.00     0.012 A   
ATOM     17  C11 UNL     1       0.820  -0.153   2.189  1.00  0.00     0.045 A   
ATOM     18  C8  UNL     1       2.876   1.611   2.981  1.00  0.00     0.037 A   
ATOM     19  C10 UNL     1       0.561   0.975   2.937  1.00  0.00     0.109 A   
ATOM     20  C9  UNL     1       1.560   1.831   3.325  1.00  0.00     0.108 A   
ATOM     21  O1  UNL     1      -0.664   1.376   3.361  1.00  0.00    -0.316 OA  
ATOM     22  O2  UNL     1       1.091   2.875   4.057  1.00  0.00    -0.316 OA  
ATOM     23  C12 UNL     1      -0.317   2.554   4.129  1.00  0.00     0.337 C   
ENDBRANCH  14  15
ENDBRANCH  11  14
ENDBRANCH   7  11
ENDBRANCH   1   7
BRANCH   3  24
ATOM     24  C15 UNL     1      -3.132  -1.088  -0.879  1.00  0.00     0.169 C   
BRANCH  24  25
ATOM     25  C16 UNL     1      -3.460  -0.860   0.579  1.00  0.00    -0.026 A   
ATOM     26  C17 UNL     1      -3.607  -1.950   1.454  1.00  0.00     0.008 A   
ATOM     27  C21 UNL     1      -3.587   0.442   1.092  1.00  0.00     0.039 A   
ATOM     28  C18 UNL     1      -3.888  -1.745   2.809  1.00  0.00     0.042 A   
ATOM     29  C20 UNL     1      -3.859   0.634   2.458  1.00  0.00     0.154 A   
ATOM     30  C19 UNL     1      -4.014  -0.452   3.311  1.00  0.00     0.151 A   
ATOM     31  F1  UNL     1      -4.304  -0.301   4.609  1.00  0.00    -0.205 F   
BRANCH  29  32
ATOM     32  N3  UNL     1      -3.965   1.989   2.976  1.00  0.00     0.095 N   
ATOM     33  O3  UNL     1      -3.606   2.205   4.140  1.00  0.00    -0.138 OA  
ATOM     34  O4  UNL     1      -4.358   2.859   2.185  1.00  0.00    -0.138 OA  
ENDBRANCH  29  32
ENDBRANCH  24  25
ENDBRANCH   3  24
TORSDOF 8
