REMARK SMILES CC(C)(C)[C@H]([NH2+]Cc1ccc2c(c1)OCO2)c1cn(CCc2cn[nH]c2)nn1
REMARK SMILES IDX 17 1 18 2 19 3 27 4 28 5 5 7 2 8 1 9 3 10 4 11 6 12 7 15
REMARK SMILES IDX 8 16 9 17 13 18 10 19 12 20 11 21 14 22 16 23 15 24 20 25
REMARK SMILES IDX 21 26 22 27 23 28 26 29 24 30 25 31
REMARK H PARENT 18 6 6 13 6 14 25 32
ROOT
ATOM     1   C14 UNL     1      -1.596   0.777   1.234  1.00  0.00     0.127 A   
ATOM     2   C15 UNL     1      -1.756  -0.586   1.345  1.00  0.00     0.045 A   
ATOM     3   N2  UNL     1      -3.072  -0.790   1.037  1.00  0.00    -0.212 N   
ATOM     4   N5  UNL     1      -3.694   0.376   0.787  1.00  0.00    -0.076 NA  
ATOM     5   N6  UNL     1      -2.797   1.343   0.889  1.00  0.00    -0.132 NA  
ATOM     6   H20 UNL     1      -1.073  -1.400   1.548  1.00  0.00     0.083 HD  
ENDROOT
BRANCH   1   7
ATOM     7   C5  UNL     1      -0.367   1.630   1.312  1.00  0.00     0.120 C   
BRANCH   7   8
ATOM     8   C2  UNL     1      -0.203   2.402   2.668  1.00  0.00     0.010 C   
ATOM     9   C1  UNL     1       1.179   3.096   2.722  1.00  0.00     0.017 C   
ATOM     10  C3  UNL     1      -1.288   3.473   2.887  1.00  0.00     0.017 C   
ATOM     11  C4  UNL     1      -0.253   1.409   3.853  1.00  0.00     0.017 C   
ENDBRANCH   7   8
BRANCH   7  12
ATOM     12  N1  UNL     1      -0.376   2.600   0.148  1.00  0.00     0.250 N   
ATOM     13  H11 UNL     1       0.262   3.381   0.305  1.00  0.00     0.199 HD  
ATOM     14  H12 UNL     1      -1.329   2.988   0.110  1.00  0.00     0.199 HD  
BRANCH  12  15
ATOM     15  C6  UNL     1      -0.089   2.011  -1.198  1.00  0.00     0.164 C   
BRANCH  15  16
ATOM     16  C7  UNL     1       1.339   1.560  -1.339  1.00  0.00    -0.002 A   
ATOM     17  C8  UNL     1       2.388   2.506  -1.431  1.00  0.00     0.012 A   
ATOM     18  C12 UNL     1       1.642   0.188  -1.359  1.00  0.00     0.045 A   
ATOM     19  C9  UNL     1       3.720   2.092  -1.531  1.00  0.00     0.037 A   
ATOM     20  C11 UNL     1       2.965  -0.187  -1.458  1.00  0.00     0.109 A   
ATOM     21  C10 UNL     1       3.975   0.739  -1.541  1.00  0.00     0.108 A   
ATOM     22  O1  UNL     1       3.425  -1.464  -1.490  1.00  0.00    -0.316 OA  
ATOM     23  O2  UNL     1       5.200   0.161  -1.634  1.00  0.00    -0.316 OA  
ATOM     24  C13 UNL     1       4.846  -1.238  -1.638  1.00  0.00     0.337 C   
ENDBRANCH  15  16
ENDBRANCH  12  15
ENDBRANCH   7  12
ENDBRANCH   1   7
BRANCH   3  25
ATOM     25  C16 UNL     1      -3.748  -2.053   0.823  1.00  0.00     0.139 C   
BRANCH  25  26
ATOM     26  C17 UNL     1      -4.110  -2.298  -0.645  1.00  0.00     0.060 C   
BRANCH  26  27
ATOM     27  C18 UNL     1      -2.939  -2.174  -1.563  1.00  0.00    -0.011 A   
ATOM     28  C19 UNL     1      -2.544  -1.023  -2.282  1.00  0.00     0.136 A   
ATOM     29  C20 UNL     1      -1.989  -3.115  -1.893  1.00  0.00     0.097 A   
ATOM     30  N3  UNL     1      -1.390  -1.194  -2.929  1.00  0.00    -0.193 NA  
ATOM     31  N4  UNL     1      -1.120  -2.501  -2.751  1.00  0.00    -0.246 N   
ATOM     32  H26 UNL     1      -0.317  -2.903  -3.227  1.00  0.00     0.175 HD  
ENDBRANCH  26  27
ENDBRANCH  25  26
ENDBRANCH   3  25
TORSDOF 8
