REMARK SMILES Cc1occc1[C@H](CO)n1cc([C@@H]([NH2+]Cc2ccc3c(c2)OCO3)C(C)(C)C)nn1
REMARK SMILES IDX 10 1 11 2 12 3 29 4 30 5 7 7 6 8 2 9 3 10 4 11 5 12 1 13
REMARK SMILES IDX 8 14 9 15 13 17 14 18 15 21 16 22 17 23 21 24 18 25 20 26
REMARK SMILES IDX 19 27 22 28 24 29 23 30 25 31 26 32 27 33 28 34
REMARK H PARENT 11 6 9 16 14 19 14 20
ROOT
ATOM     1   N1  UNL     1       1.429  -2.187   1.758  1.00  0.00    -0.202 N   
ATOM     2   C8  UNL     1       1.383  -0.892   2.204  1.00  0.00     0.046 A   
ATOM     3   C9  UNL     1       0.597  -0.243   1.279  1.00  0.00     0.127 A   
ATOM     4   N3  UNL     1       0.229  -1.132   0.301  1.00  0.00    -0.132 NA  
ATOM     5   N4  UNL     1       0.752  -2.311   0.595  1.00  0.00    -0.075 NA  
ATOM     6   H10 UNL     1       1.895  -0.575   3.102  1.00  0.00     0.083 HD  
ENDROOT
BRANCH   1   7
ATOM     7   C6  UNL     1       2.085  -3.349   2.354  1.00  0.00     0.157 C   
BRANCH   7   8
ATOM     8   C5  UNL     1       1.605  -3.555   3.768  1.00  0.00     0.005 A   
ATOM     9   C2  UNL     1       0.482  -4.271   4.155  1.00  0.00     0.061 A   
ATOM     10  O1  UNL     1       0.344  -4.249   5.508  1.00  0.00    -0.322 OA  
ATOM     11  C3  UNL     1       1.372  -3.524   6.004  1.00  0.00     0.136 A   
ATOM     12  C4  UNL     1       2.177  -3.074   4.986  1.00  0.00     0.034 A   
ATOM     13  C1  UNL     1      -0.552  -5.023   3.411  1.00  0.00     0.073 C   
ENDBRANCH   7   8
BRANCH   7  14
ATOM     14  C7  UNL     1       3.614  -3.301   2.181  1.00  0.00     0.186 C   
BRANCH  14  15
ATOM     15  O2  UNL     1       4.209  -2.130   2.748  1.00  0.00    -0.394 OA  
ATOM     16  H9  UNL     1       5.174  -2.265   2.725  1.00  0.00     0.210 HD  
ENDBRANCH  14  15
ENDBRANCH   7  14
ENDBRANCH   1   7
BRANCH   3  17
ATOM     17  C10 UNL     1       0.199   1.197   1.160  1.00  0.00     0.120 C   
BRANCH  17  18
ATOM     18  N2  UNL     1       0.134   1.558  -0.308  1.00  0.00     0.250 N   
ATOM     19  H12 UNL     1      -0.391   2.417  -0.481  1.00  0.00     0.199 HD  
ATOM     20  H13 UNL     1      -0.391   0.801  -0.771  1.00  0.00     0.199 HD  
BRANCH  18  21
ATOM     21  C11 UNL     1       1.452   1.659  -0.995  1.00  0.00     0.164 C   
BRANCH  21  22
ATOM     22  C12 UNL     1       1.262   1.927  -2.462  1.00  0.00    -0.002 A   
ATOM     23  C13 UNL     1       1.320   3.247  -2.966  1.00  0.00     0.012 A   
ATOM     24  C17 UNL     1       0.977   0.862  -3.335  1.00  0.00     0.045 A   
ATOM     25  C14 UNL     1       1.108   3.505  -4.325  1.00  0.00     0.037 A   
ATOM     26  C16 UNL     1       0.771   1.153  -4.668  1.00  0.00     0.109 A   
ATOM     27  C15 UNL     1       0.834   2.437  -5.149  1.00  0.00     0.108 A   
ATOM     28  O3  UNL     1       0.487   0.246  -5.640  1.00  0.00    -0.316 OA  
ATOM     29  O4  UNL     1       0.601   2.502  -6.485  1.00  0.00    -0.316 OA  
ATOM     30  C18 UNL     1       0.406   1.105  -6.800  1.00  0.00     0.337 C   
ENDBRANCH  21  22
ENDBRANCH  18  21
ENDBRANCH  17  18
BRANCH  17  31
ATOM     31  C19 UNL     1      -1.154   1.552   1.871  1.00  0.00     0.010 C   
ATOM     32  C20 UNL     1      -1.079   1.189   3.373  1.00  0.00     0.017 C   
ATOM     33  C21 UNL     1      -2.361   0.816   1.256  1.00  0.00     0.017 C   
ATOM     34  C22 UNL     1      -1.421   3.074   1.793  1.00  0.00     0.017 C   
ENDBRANCH  17  31
ENDBRANCH   3  17
TORSDOF 9
