REMARK SMILES Fc1cc(F)cc(-n2cc([C@@H]([NH2+]Cc3ccc4c(c3)OCO4)C3CCCC3)nn2)c1
REMARK SMILES IDX 11 1 10 2 8 3 9 4 29 5 28 6 7 7 2 8 3 9 30 10 4 11 6 12 1 13
REMARK SMILES IDX 5 14 12 15 13 18 14 19 15 20 19 21 16 22 18 23 17 24 20 25
REMARK SMILES IDX 22 26 21 27 23 28 24 29 27 30 25 31 26 32
REMARK H PARENT 12 16 12 17
ROOT
ATOM     1   C8  UNL     1      -1.847   0.418  -1.117  1.00  0.00     0.117 C   
ENDROOT
BRANCH   1   2
ATOM     2   C7  UNL     1      -0.510   0.988  -0.768  1.00  0.00     0.127 A   
ATOM     3   N1  UNL     1       1.605   1.404  -0.406  1.00  0.00    -0.180 N   
ATOM     4   C6  UNL     1       0.754   0.691  -1.227  1.00  0.00     0.135 A   
ATOM     5   N4  UNL     1       0.864   2.154   0.449  1.00  0.00    -0.071 NA  
ATOM     6   N3  UNL     1      -0.417   1.895   0.249  1.00  0.00    -0.131 NA  
BRANCH   3   7
ATOM     7   C5  UNL     1       3.020   1.379  -0.351  1.00  0.00     0.063 A   
ATOM     8   C1  UNL     1       5.151   0.517  -1.087  1.00  0.00     0.128 A   
ATOM     9   C2  UNL     1       5.822   1.316  -0.175  1.00  0.00     0.078 A   
ATOM     10  C22 UNL     1       3.760   0.538  -1.190  1.00  0.00     0.065 A   
ATOM     11  C3  UNL     1       5.082   2.149   0.650  1.00  0.00     0.128 A   
ATOM     12  C4  UNL     1       3.691   2.191   0.576  1.00  0.00     0.065 A   
ATOM     13  F1  UNL     1       5.847  -0.302  -1.885  1.00  0.00    -0.207 F   
ATOM     14  F2  UNL     1       5.713   2.926   1.539  1.00  0.00    -0.207 F   
ENDBRANCH   3   7
ENDBRANCH   1   2
BRANCH   1  15
ATOM     15  N2  UNL     1      -2.564   0.030   0.164  1.00  0.00     0.249 N   
ATOM     16  H5  UNL     1      -2.249   0.701   0.882  1.00  0.00     0.199 HD  
ATOM     17  H6  UNL     1      -3.574   0.174   0.076  1.00  0.00     0.199 HD  
BRANCH  15  18
ATOM     18  C9  UNL     1      -2.325  -1.356   0.671  1.00  0.00     0.164 C   
BRANCH  18  19
ATOM     19  C10 UNL     1      -0.889  -1.648   1.007  1.00  0.00    -0.002 A   
ATOM     20  C11 UNL     1      -0.286  -1.065   2.148  1.00  0.00     0.012 A   
ATOM     21  C15 UNL     1      -0.113  -2.455   0.155  1.00  0.00     0.045 A   
ATOM     22  C12 UNL     1       1.072  -1.259   2.424  1.00  0.00     0.037 A   
ATOM     23  C14 UNL     1       1.224  -2.620   0.453  1.00  0.00     0.109 A   
ATOM     24  C13 UNL     1       1.801  -2.036   1.553  1.00  0.00     0.108 A   
ATOM     25  O1  UNL     1       2.117  -3.327  -0.288  1.00  0.00    -0.316 OA  
ATOM     26  O2  UNL     1       3.128  -2.308   1.647  1.00  0.00    -0.316 OA  
ATOM     27  C16 UNL     1       3.314  -3.180   0.512  1.00  0.00     0.337 C   
ENDBRANCH  18  19
ENDBRANCH  15  18
ENDBRANCH   1  15
BRANCH   1  28
ATOM     28  C17 UNL     1      -2.721   1.425  -1.889  1.00  0.00     0.043 C   
ATOM     29  C18 UNL     1      -4.090   0.872  -2.316  1.00  0.00     0.010 C   
ATOM     30  C21 UNL     1      -2.110   1.860  -3.225  1.00  0.00     0.010 C   
ATOM     31  C19 UNL     1      -4.483   1.638  -3.580  1.00  0.00     0.001 C   
ATOM     32  C20 UNL     1      -3.283   2.502  -3.948  1.00  0.00     0.001 C   
ENDBRANCH   1  28
TORSDOF 6
