REMARK SMILES Cc1cc(-n2cc([C@@H]([NH2+]Cc3ccc4c(c3)OCO4)C3CCCC3)nn2)cc(=O)o1
REMARK SMILES IDX 8 1 7 2 5 3 6 4 26 5 25 6 4 7 2 8 3 9 30 10 28 11 27 12 1 13
REMARK SMILES IDX 29 14 9 15 10 18 11 19 12 20 16 21 13 22 15 23 14 24 17 25
REMARK SMILES IDX 19 26 18 27 20 28 21 29 24 30 22 31 23 32
REMARK H PARENT 9 16 9 17
ROOT
ATOM     1   C7  UNL     1       1.072   0.631  -0.812  1.00  0.00     0.117 C   
ENDROOT
BRANCH   1   2
ATOM     2   C6  UNL     1      -0.054  -0.349  -0.698  1.00  0.00     0.127 A   
ATOM     3   N1  UNL     1      -1.779  -1.724  -0.953  1.00  0.00    -0.180 N   
ATOM     4   C5  UNL     1      -0.915  -0.864  -1.638  1.00  0.00     0.135 A   
ATOM     5   N4  UNL     1      -1.426  -1.651   0.370  1.00  0.00    -0.071 NA  
ATOM     6   N3  UNL     1      -0.385  -0.852   0.521  1.00  0.00    -0.131 NA  
BRANCH   3   7
ATOM     7   C4  UNL     1      -2.823  -2.511  -1.496  1.00  0.00     0.066 A   
ATOM     8   C2  UNL     1      -4.626  -4.090  -1.086  1.00  0.00     0.062 A   
ATOM     9   C3  UNL     1      -3.635  -3.326  -0.606  1.00  0.00     0.055 A   
ATOM     10  O4  UNL     1      -4.924  -4.134  -2.465  1.00  0.00    -0.279 OA  
ATOM     11  C22 UNL     1      -4.205  -3.389  -3.349  1.00  0.00     0.292 A   
ATOM     12  C21 UNL     1      -3.114  -2.557  -2.809  1.00  0.00     0.106 A   
ATOM     13  C1  UNL     1      -5.503  -4.958  -0.243  1.00  0.00     0.073 C   
ATOM     14  O3  UNL     1      -4.425  -3.385  -4.555  1.00  0.00    -0.261 OA  
ENDBRANCH   3   7
ENDBRANCH   1   2
BRANCH   1  15
ATOM     15  N2  UNL     1       1.144   1.476   0.437  1.00  0.00     0.249 N   
ATOM     16  H7  UNL     1       2.029   1.987   0.502  1.00  0.00     0.199 HD  
ATOM     17  H8  UNL     1       1.123   0.831   1.242  1.00  0.00     0.199 HD  
BRANCH  15  18
ATOM     18  C8  UNL     1       0.029   2.450   0.618  1.00  0.00     0.164 C   
BRANCH  18  19
ATOM     19  C9  UNL     1       0.237   3.257   1.868  1.00  0.00    -0.002 A   
ATOM     20  C10 UNL     1       0.862   4.525   1.807  1.00  0.00     0.012 A   
ATOM     21  C14 UNL     1      -0.144   2.731   3.115  1.00  0.00     0.045 A   
ATOM     22  C11 UNL     1       1.097   5.266   2.970  1.00  0.00     0.037 A   
ATOM     23  C13 UNL     1       0.106   3.486   4.242  1.00  0.00     0.109 A   
ATOM     24  C12 UNL     1       0.709   4.718   4.172  1.00  0.00     0.108 A   
ATOM     25  O1  UNL     1      -0.193   3.126   5.517  1.00  0.00    -0.316 OA  
ATOM     26  O2  UNL     1       0.860   5.291   5.394  1.00  0.00    -0.316 OA  
ATOM     27  C15 UNL     1       0.279   4.281   6.247  1.00  0.00     0.337 C   
ENDBRANCH  18  19
ENDBRANCH  15  18
ENDBRANCH   1  15
BRANCH   1  28
ATOM     28  C16 UNL     1       2.429  -0.077  -1.008  1.00  0.00     0.043 C   
ATOM     29  C17 UNL     1       2.512  -0.868  -2.322  1.00  0.00     0.010 C   
ATOM     30  C20 UNL     1       3.631   0.865  -1.129  1.00  0.00     0.010 C   
ATOM     31  C18 UNL     1       4.001  -0.987  -2.645  1.00  0.00     0.001 C   
ATOM     32  C19 UNL     1       4.721  -0.022  -1.710  1.00  0.00     0.001 C   
ENDBRANCH   1  28
TORSDOF 6
