REMARK SMILES Cc1ccnc([C@@H](CO)n2cc([C@@H]([NH2+]Cc3ccc4c(c3)OCO4)C(C)(C)C)nn2)c1
REMARK SMILES IDX 10 1 11 2 12 3 29 4 30 5 7 7 6 8 2 9 3 10 31 11 4 12 5 13
REMARK SMILES IDX 1 14 8 15 9 16 13 18 14 19 15 22 16 23 17 24 21 25 18 26
REMARK SMILES IDX 20 27 19 28 22 29 24 30 23 31 25 32 26 33 27 34 28 35
REMARK H PARENT 11 6 9 17 14 20 14 21
ROOT
ATOM     1   N2  UNL     1       0.174  -2.336  -0.567  1.00  0.00    -0.201 N   
ATOM     2   C8  UNL     1       0.632  -1.500   0.415  1.00  0.00     0.046 A   
ATOM     3   C9  UNL     1      -0.503  -0.903   0.911  1.00  0.00     0.127 A   
ATOM     4   N4  UNL     1      -1.588  -1.342   0.198  1.00  0.00    -0.132 NA  
ATOM     5   N5  UNL     1      -1.163  -2.208  -0.708  1.00  0.00    -0.075 NA  
ATOM     6   H10 UNL     1       1.682  -1.423   0.665  1.00  0.00     0.083 HD  
ENDROOT
BRANCH   1   7
ATOM     7   C6  UNL     1       0.922  -3.235  -1.438  1.00  0.00     0.174 C   
BRANCH   7   8
ATOM     8   C5  UNL     1       1.784  -2.426  -2.392  1.00  0.00     0.065 A   
ATOM     9   C2  UNL     1       2.059  -1.229  -4.468  1.00  0.00    -0.048 A   
ATOM     10  C3  UNL     1       3.364  -0.933  -4.077  1.00  0.00     0.023 A   
ATOM     11  C23 UNL     1       1.262  -1.996  -3.613  1.00  0.00     0.029 A   
ATOM     12  C4  UNL     1       3.807  -1.387  -2.847  1.00  0.00     0.111 A   
ATOM     13  N1  UNL     1       3.047  -2.113  -1.994  1.00  0.00    -0.259 NA  
ATOM     14  C1  UNL     1       1.545  -0.791  -5.807  1.00  0.00     0.044 C   
ENDBRANCH   7   8
BRANCH   7  15
ATOM     15  C7  UNL     1       1.707  -4.301  -0.652  1.00  0.00     0.187 C   
BRANCH  15  16
ATOM     16  O1  UNL     1       2.736  -3.762   0.181  1.00  0.00    -0.394 OA  
ATOM     17  H9  UNL     1       3.327  -3.252  -0.417  1.00  0.00     0.210 HD  
ENDBRANCH  15  16
ENDBRANCH   7  15
ENDBRANCH   1   7
BRANCH   3  18
ATOM     18  C10 UNL     1      -0.674   0.139   1.972  1.00  0.00     0.120 C   
BRANCH  18  19
ATOM     19  N3  UNL     1      -1.734   1.129   1.526  1.00  0.00     0.250 N   
ATOM     20  H12 UNL     1      -2.013   1.739   2.296  1.00  0.00     0.199 HD  
ATOM     21  H13 UNL     1      -2.555   0.568   1.262  1.00  0.00     0.199 HD  
BRANCH  19  22
ATOM     22  C11 UNL     1      -1.390   1.979   0.346  1.00  0.00     0.164 C   
BRANCH  22  23
ATOM     23  C12 UNL     1      -0.263   2.936   0.618  1.00  0.00    -0.002 A   
ATOM     24  C13 UNL     1      -0.469   4.072   1.438  1.00  0.00     0.012 A   
ATOM     25  C17 UNL     1       1.014   2.689   0.085  1.00  0.00     0.045 A   
ATOM     26  C14 UNL     1       0.584   4.947   1.729  1.00  0.00     0.037 A   
ATOM     27  C16 UNL     1       2.029   3.570   0.393  1.00  0.00     0.109 A   
ATOM     28  C15 UNL     1       1.821   4.667   1.192  1.00  0.00     0.108 A   
ATOM     29  O2  UNL     1       3.317   3.473  -0.031  1.00  0.00    -0.316 OA  
ATOM     30  O3  UNL     1       2.950   5.400   1.371  1.00  0.00    -0.316 OA  
ATOM     31  C18 UNL     1       3.894   4.652   0.575  1.00  0.00     0.337 C   
ENDBRANCH  22  23
ENDBRANCH  19  22
ENDBRANCH  18  19
BRANCH  18  32
ATOM     32  C19 UNL     1      -1.030  -0.440   3.388  1.00  0.00     0.010 C   
ATOM     33  C20 UNL     1      -2.401  -1.143   3.423  1.00  0.00     0.017 C   
ATOM     34  C21 UNL     1       0.048  -1.456   3.832  1.00  0.00     0.017 C   
ATOM     35  C22 UNL     1      -1.040   0.692   4.443  1.00  0.00     0.017 C   
ENDBRANCH  18  32
ENDBRANCH   3  18
TORSDOF 9
