REMARK SMILES Cc1ccnc([C@H](CO)n2cc([C@@H]([NH2+]Cc3ccc4c(c3)OCO4)C(C)(C)C)nn2)c1
REMARK SMILES IDX 10 1 11 2 12 3 29 4 30 5 7 7 6 8 2 9 3 10 31 11 4 12 5 13
REMARK SMILES IDX 1 14 8 15 9 16 13 18 14 19 15 22 16 23 17 24 21 25 18 26
REMARK SMILES IDX 20 27 19 28 22 29 24 30 23 31 25 32 26 33 27 34 28 35
REMARK H PARENT 11 6 9 17 14 20 14 21
ROOT
ATOM     1   N2  UNL     1      -1.504   2.223   0.427  1.00  0.00    -0.201 N   
ATOM     2   C8  UNL     1      -0.157   1.980   0.494  1.00  0.00     0.046 A   
ATOM     3   C9  UNL     1      -0.042   0.626   0.288  1.00  0.00     0.127 A   
ATOM     4   N4  UNL     1      -1.298   0.087   0.149  1.00  0.00    -0.132 NA  
ATOM     5   N5  UNL     1      -2.181   1.067   0.247  1.00  0.00    -0.075 NA  
ATOM     6   H10 UNL     1       0.563   2.772   0.653  1.00  0.00     0.083 HD  
ENDROOT
BRANCH   1   7
ATOM     7   C6  UNL     1      -2.219   3.492   0.492  1.00  0.00     0.174 C   
BRANCH   7   8
ATOM     8   C5  UNL     1      -1.837   4.360  -0.697  1.00  0.00     0.065 A   
ATOM     9   C2  UNL     1      -2.179   5.047  -2.983  1.00  0.00    -0.048 A   
ATOM     10  C3  UNL     1      -1.091   5.910  -2.844  1.00  0.00     0.023 A   
ATOM     11  C23 UNL     1      -2.545   4.249  -1.896  1.00  0.00     0.029 A   
ATOM     12  C4  UNL     1      -0.432   5.955  -1.626  1.00  0.00     0.111 A   
ATOM     13  N1  UNL     1      -0.774   5.201  -0.556  1.00  0.00    -0.259 NA  
ATOM     14  C1  UNL     1      -2.911   4.939  -4.290  1.00  0.00     0.044 C   
ENDBRANCH   7   8
BRANCH   7  15
ATOM     15  C7  UNL     1      -2.041   4.199   1.849  1.00  0.00     0.187 C   
BRANCH  15  16
ATOM     16  O1  UNL     1      -0.692   4.581   2.128  1.00  0.00    -0.394 OA  
ATOM     17  H9  UNL     1      -0.410   5.143   1.371  1.00  0.00     0.210 HD  
ENDBRANCH  15  16
ENDBRANCH   7  15
ENDBRANCH   1   7
BRANCH   3  18
ATOM     18  C10 UNL     1       1.161  -0.270   0.249  1.00  0.00     0.120 C   
BRANCH  18  19
ATOM     19  N3  UNL     1       0.761  -1.637   0.753  1.00  0.00     0.250 N   
ATOM     20  H12 UNL     1       1.422  -2.369   0.481  1.00  0.00     0.199 HD  
ATOM     21  H13 UNL     1      -0.132  -1.868   0.291  1.00  0.00     0.199 HD  
BRANCH  19  22
ATOM     22  C11 UNL     1       0.527  -1.736   2.223  1.00  0.00     0.164 C   
BRANCH  22  23
ATOM     23  C12 UNL     1       0.008  -3.104   2.571  1.00  0.00    -0.002 A   
ATOM     24  C13 UNL     1      -1.373  -3.395   2.430  1.00  0.00     0.012 A   
ATOM     25  C17 UNL     1       0.894  -4.120   2.972  1.00  0.00     0.045 A   
ATOM     26  C14 UNL     1      -1.868  -4.677   2.692  1.00  0.00     0.037 A   
ATOM     27  C16 UNL     1       0.372  -5.373   3.220  1.00  0.00     0.109 A   
ATOM     28  C15 UNL     1      -0.969  -5.645   3.084  1.00  0.00     0.108 A   
ATOM     29  O2  UNL     1       1.086  -6.465   3.602  1.00  0.00    -0.316 OA  
ATOM     30  O3  UNL     1      -1.269  -6.938   3.372  1.00  0.00    -0.316 OA  
ATOM     31  C18 UNL     1       0.038  -7.452   3.721  1.00  0.00     0.337 C   
ENDBRANCH  22  23
ENDBRANCH  19  22
ENDBRANCH  18  19
BRANCH  18  32
ATOM     32  C19 UNL     1       1.818  -0.385  -1.173  1.00  0.00     0.010 C   
ATOM     33  C20 UNL     1       0.869  -1.018  -2.213  1.00  0.00     0.017 C   
ATOM     34  C21 UNL     1       3.105  -1.240  -1.106  1.00  0.00     0.017 C   
ATOM     35  C22 UNL     1       2.239   1.013  -1.686  1.00  0.00     0.017 C   
ENDBRANCH  18  32
ENDBRANCH   3  18
TORSDOF 9
