REMARK SMILES Clc1ccncc1-n1cc([C@@H]([NH2+]Cc2ccc3c(c2)OCO3)C2CCCCC2)nn1
REMARK SMILES IDX 11 1 10 2 8 3 9 4 30 5 29 6 7 7 2 8 3 9 4 10 6 11 5 12 1 13
REMARK SMILES IDX 12 14 13 17 14 18 15 19 19 20 16 21 18 22 17 23 20 24 22 25
REMARK SMILES IDX 21 26 23 27 24 28 28 29 25 30 27 31 26 32
REMARK H PARENT 12 15 12 16
ROOT
ATOM     1   C8  UNL     1       1.369  -0.555  -0.165  1.00  0.00     0.117 C   
ENDROOT
BRANCH   1   2
ATOM     2   C7  UNL     1       0.119  -0.408   0.646  1.00  0.00     0.127 A   
ATOM     3   N2  UNL     1      -1.916  -0.061   1.407  1.00  0.00    -0.178 N   
ATOM     4   C6  UNL     1      -1.208  -0.422   0.277  1.00  0.00     0.135 A   
ATOM     5   N5  UNL     1      -1.014   0.104   2.422  1.00  0.00    -0.071 NA  
ATOM     6   N4  UNL     1       0.211  -0.091   1.967  1.00  0.00    -0.131 NA  
BRANCH   3   7
ATOM     7   C5  UNL     1      -3.297   0.173   1.633  1.00  0.00     0.094 A   
ATOM     8   C1  UNL     1      -4.327   0.059   0.690  1.00  0.00     0.067 A   
ATOM     9   C2  UNL     1      -5.648   0.337   1.067  1.00  0.00     0.042 A   
ATOM     10  C3  UNL     1      -5.905   0.725   2.371  1.00  0.00     0.112 A   
ATOM     11  C4  UNL     1      -3.675   0.569   2.921  1.00  0.00     0.138 A   
ATOM     12  N1  UNL     1      -4.945   0.846   3.303  1.00  0.00    -0.263 NA  
ATOM     13  CL1 UNL     1      -4.144  -0.418  -0.967  1.00  0.00    -0.082 Cl  
ENDBRANCH   3   7
ENDBRANCH   1   2
BRANCH   1  14
ATOM     14  N3  UNL     1       2.290   0.603   0.194  1.00  0.00     0.249 N   
ATOM     15  H6  UNL     1       2.064   0.851   1.170  1.00  0.00     0.199 HD  
ATOM     16  H7  UNL     1       3.269   0.313   0.217  1.00  0.00     0.199 HD  
BRANCH  14  17
ATOM     17  C9  UNL     1       2.172   1.835  -0.642  1.00  0.00     0.164 C   
BRANCH  17  18
ATOM     18  C10 UNL     1       0.808   2.467  -0.610  1.00  0.00    -0.002 A   
ATOM     19  C11 UNL     1       0.360   3.158   0.542  1.00  0.00     0.012 A   
ATOM     20  C15 UNL     1      -0.059   2.328  -1.707  1.00  0.00     0.045 A   
ATOM     21  C12 UNL     1      -0.936   3.684   0.612  1.00  0.00     0.037 A   
ATOM     22  C14 UNL     1      -1.330   2.856  -1.605  1.00  0.00     0.109 A   
ATOM     23  C13 UNL     1      -1.759   3.512  -0.477  1.00  0.00     0.108 A   
ATOM     24  O1  UNL     1      -2.292   2.781  -2.561  1.00  0.00    -0.316 OA  
ATOM     25  O2  UNL     1      -3.045   3.937  -0.585  1.00  0.00    -0.316 OA  
ATOM     26  C16 UNL     1      -3.355   3.537  -1.938  1.00  0.00     0.337 C   
ENDBRANCH  17  18
ENDBRANCH  14  17
ENDBRANCH   1  14
BRANCH   1  27
ATOM     27  C17 UNL     1       2.107  -1.900   0.086  1.00  0.00     0.043 C   
ATOM     28  C18 UNL     1       1.158  -3.105  -0.103  1.00  0.00     0.010 C   
ATOM     29  C22 UNL     1       3.326  -2.064  -0.850  1.00  0.00     0.010 C   
ATOM     30  C19 UNL     1       1.868  -4.446   0.080  1.00  0.00     0.001 C   
ATOM     31  C21 UNL     1       4.030  -3.406  -0.659  1.00  0.00     0.001 C   
ATOM     32  C20 UNL     1       3.075  -4.577  -0.838  1.00  0.00     0.000 C   
ENDBRANCH   1  27
TORSDOF 6
