REMARK SMILES CC(C)(C)[C@H]([NH2+]Cc1ccc2c(c1)OCO2)c1cn(CCc2cnc(Cl)s2)nn1
REMARK SMILES IDX 17 1 18 2 19 3 28 4 29 5 5 7 2 8 1 9 3 10 4 11 6 12 7 15
REMARK SMILES IDX 8 16 9 17 13 18 10 19 12 20 11 21 14 22 16 23 15 24 20 25
REMARK SMILES IDX 21 26 22 27 23 28 27 29 24 30 25 31 26 32
REMARK H PARENT 18 6 6 13 6 14
ROOT
ATOM     1   C14 UNL     1       0.901  -0.678   1.077  1.00  0.00     0.127 A   
ATOM     2   C15 UNL     1       0.477  -1.960   0.801  1.00  0.00     0.045 A   
ATOM     3   N2  UNL     1       0.022  -2.423   2.004  1.00  0.00    -0.212 N   
ATOM     4   N4  UNL     1       0.173  -1.495   2.966  1.00  0.00    -0.076 NA  
ATOM     5   N5  UNL     1       0.697  -0.415   2.408  1.00  0.00    -0.132 NA  
ATOM     6   H20 UNL     1       0.422  -2.545  -0.107  1.00  0.00     0.083 HD  
ENDROOT
BRANCH   1   7
ATOM     7   C5  UNL     1       1.398   0.408   0.172  1.00  0.00     0.120 C   
BRANCH   7   8
ATOM     8   C2  UNL     1       2.954   0.608   0.198  1.00  0.00     0.010 C   
ATOM     9   C1  UNL     1       3.381   1.620  -0.891  1.00  0.00     0.017 C   
ATOM     10  C3  UNL     1       3.475   1.115   1.557  1.00  0.00     0.017 C   
ATOM     11  C4  UNL     1       3.664  -0.727  -0.127  1.00  0.00     0.017 C   
ENDBRANCH   7   8
BRANCH   7  12
ATOM     12  N1  UNL     1       0.690   1.702   0.523  1.00  0.00     0.250 N   
ATOM     13  H11 UNL     1       0.773   1.808   1.543  1.00  0.00     0.199 HD  
ATOM     14  H12 UNL     1       1.154   2.506   0.096  1.00  0.00     0.199 HD  
BRANCH  12  15
ATOM     15  C6  UNL     1      -0.768   1.771   0.191  1.00  0.00     0.164 C   
BRANCH  15  16
ATOM     16  C7  UNL     1      -1.024   1.803  -1.289  1.00  0.00    -0.002 A   
ATOM     17  C8  UNL     1      -0.800   2.985  -2.034  1.00  0.00     0.012 A   
ATOM     18  C12 UNL     1      -1.460   0.642  -1.951  1.00  0.00     0.045 A   
ATOM     19  C9  UNL     1      -1.006   3.011  -3.418  1.00  0.00     0.037 A   
ATOM     20  C11 UNL     1      -1.653   0.701  -3.314  1.00  0.00     0.109 A   
ATOM     21  C10 UNL     1      -1.432   1.852  -4.028  1.00  0.00     0.108 A   
ATOM     22  O1  UNL     1      -2.062  -0.329  -4.100  1.00  0.00    -0.316 OA  
ATOM     23  O2  UNL     1      -1.681   1.694  -5.354  1.00  0.00    -0.316 OA  
ATOM     24  C13 UNL     1      -2.124   0.321  -5.390  1.00  0.00     0.337 C   
ENDBRANCH  15  16
ENDBRANCH  12  15
ENDBRANCH   7  12
ENDBRANCH   1   7
BRANCH   3  25
ATOM     25  C16 UNL     1      -0.699  -3.653   2.268  1.00  0.00     0.139 C   
BRANCH  25  26
ATOM     26  C17 UNL     1      -2.150  -3.423   2.708  1.00  0.00     0.066 C   
BRANCH  26  27
ATOM     27  C18 UNL     1      -2.906  -2.541   1.760  1.00  0.00     0.012 A   
ATOM     28  C19 UNL     1      -3.119  -1.176   1.840  1.00  0.00     0.124 A   
ATOM     29  S1  UNL     1      -3.631  -3.145   0.327  1.00  0.00    -0.061 S   
ATOM     30  N3  UNL     1      -3.749  -0.602   0.753  1.00  0.00    -0.237 NA  
ATOM     31  C20 UNL     1      -4.111  -1.561  -0.067  1.00  0.00     0.167 A   
ATOM     32  CL1 UNL     1      -4.957  -1.253  -1.525  1.00  0.00    -0.054 Cl  
ENDBRANCH  26  27
ENDBRANCH  25  26
ENDBRANCH   3  25
TORSDOF 8
