REMARK SMILES COc1cccc(CCn2cc([C@@H]([NH2+]Cc3ccc4c(c3)OCO4)C(C)C)nn2)c1C
REMARK SMILES IDX 10 1 11 2 12 3 28 4 29 5 9 7 8 8 7 9 3 10 4 11 30 12 5 13
REMARK SMILES IDX 6 14 31 15 2 16 1 17 13 18 14 19 15 22 16 23 17 24 21 25
REMARK SMILES IDX 18 26 20 27 19 28 22 29 24 30 23 31 25 32 26 33 27 34
REMARK H PARENT 11 6 14 20 14 21
ROOT
ATOM     1   N1  UNL     1       2.274   1.362  -1.389  1.00  0.00    -0.212 N   
ATOM     2   C9  UNL     1       1.273   0.768  -2.107  1.00  0.00     0.045 A   
ATOM     3   C10 UNL     1       0.122   1.205  -1.492  1.00  0.00     0.127 A   
ATOM     4   N3  UNL     1       0.453   2.082  -0.489  1.00  0.00    -0.132 NA  
ATOM     5   N4  UNL     1       1.773   2.180  -0.448  1.00  0.00    -0.076 NA  
ATOM     6   H11 UNL     1       1.470   0.057  -2.897  1.00  0.00     0.083 HD  
ENDROOT
BRANCH   1   7
ATOM     7   C8  UNL     1       3.695   1.088  -1.462  1.00  0.00     0.139 C   
BRANCH   7   8
ATOM     8   C7  UNL     1       4.166   0.065  -0.416  1.00  0.00     0.057 C   
BRANCH   8   9
ATOM     9   C6  UNL     1       3.384  -1.237  -0.469  1.00  0.00    -0.041 A   
ATOM     10  C2  UNL     1       1.638  -2.735   0.300  1.00  0.00     0.078 A   
ATOM     11  C3  UNL     1       1.808  -3.536  -0.831  1.00  0.00     0.034 A   
ATOM     12  C23 UNL     1       2.423  -1.586   0.510  1.00  0.00    -0.018 A   
ATOM     13  C4  UNL     1       2.795  -3.221  -1.758  1.00  0.00     0.003 A   
ATOM     14  C5  UNL     1       3.575  -2.080  -1.580  1.00  0.00     0.004 A   
ATOM     15  C24 UNL     1       2.250  -0.765   1.762  1.00  0.00     0.047 C   
BRANCH  10  16
ATOM     16  O1  UNL     1       0.611  -3.026   1.165  1.00  0.00    -0.349 OA  
ATOM     17  C1  UNL     1       0.962  -4.139   1.994  1.00  0.00     0.203 C   
ENDBRANCH  10  16
ENDBRANCH   8   9
ENDBRANCH   7   8
ENDBRANCH   1   7
BRANCH   3  18
ATOM     18  C11 UNL     1      -1.298   0.782  -1.675  1.00  0.00     0.117 C   
BRANCH  18  19
ATOM     19  N2  UNL     1      -1.968   0.624  -0.334  1.00  0.00     0.249 N   
ATOM     20  H13 UNL     1      -1.764   1.475   0.208  1.00  0.00     0.199 HD  
ATOM     21  H14 UNL     1      -2.987   0.569  -0.429  1.00  0.00     0.199 HD  
BRANCH  19  22
ATOM     22  C12 UNL     1      -1.489  -0.534   0.478  1.00  0.00     0.164 C   
BRANCH  22  23
ATOM     23  C13 UNL     1      -2.217  -0.587   1.791  1.00  0.00    -0.002 A   
ATOM     24  C14 UNL     1      -1.759   0.181   2.889  1.00  0.00     0.012 A   
ATOM     25  C18 UNL     1      -3.386  -1.355   1.923  1.00  0.00     0.045 A   
ATOM     26  C15 UNL     1      -2.449   0.178   4.106  1.00  0.00     0.037 A   
ATOM     27  C17 UNL     1      -4.041  -1.337   3.137  1.00  0.00     0.109 A   
ATOM     28  C16 UNL     1      -3.586  -0.592   4.197  1.00  0.00     0.108 A   
ATOM     29  O2  UNL     1      -5.178  -2.021   3.432  1.00  0.00    -0.316 OA  
ATOM     30  O3  UNL     1      -4.377  -0.715   5.294  1.00  0.00    -0.316 OA  
ATOM     31  C19 UNL     1      -5.383  -1.629   4.809  1.00  0.00     0.337 C   
ENDBRANCH  22  23
ENDBRANCH  19  22
ENDBRANCH  18  19
BRANCH  18  32
ATOM     32  C20 UNL     1      -2.146   1.743  -2.546  1.00  0.00     0.037 C   
ATOM     33  C21 UNL     1      -1.627   1.798  -3.988  1.00  0.00     0.014 C   
ATOM     34  C22 UNL     1      -2.267   3.164  -1.986  1.00  0.00     0.014 C   
ENDBRANCH  18  32
ENDBRANCH   3  18
TORSDOF 9
