REMARK SMILES c1cc2c(cc1C[NH2+][C@H](c1cn(CCc3csc(C4CC4)n3)nn1)C1CCCC1)OCO2
REMARK SMILES IDX 10 1 11 2 12 3 23 4 24 5 9 7 8 8 7 11 6 12 1 13 2 14 3 15
REMARK SMILES IDX 5 16 4 17 32 18 30 19 31 20 25 21 26 22 29 23 27 24 28 25
REMARK SMILES IDX 13 26 14 27 15 28 16 29 22 30 17 31 18 32 19 33 20 34 21 35
REMARK H PARENT 11 6 8 9 8 10
ROOT
ATOM     1   C9  UNL     1      -0.176  -0.910  -2.384  1.00  0.00     0.127 A   
ATOM     2   C10 UNL     1      -1.079  -1.944  -2.288  1.00  0.00     0.045 A   
ATOM     3   N2  UNL     1      -0.293  -3.037  -2.066  1.00  0.00    -0.212 N   
ATOM     4   N4  UNL     1       1.012  -2.714  -2.106  1.00  0.00    -0.076 NA  
ATOM     5   N5  UNL     1       1.098  -1.409  -2.294  1.00  0.00    -0.132 NA  
ATOM     6   H9  UNL     1      -2.159  -1.992  -2.267  1.00  0.00     0.083 HD  
ENDROOT
BRANCH   1   7
ATOM     7   C8  UNL     1      -0.377   0.567  -2.422  1.00  0.00     0.117 C   
BRANCH   7   8
ATOM     8   N1  UNL     1       0.543   1.202  -1.409  1.00  0.00     0.249 N   
ATOM     9   H6  UNL     1       1.478   0.791  -1.557  1.00  0.00     0.199 HD  
ATOM     10  H7  UNL     1       0.638   2.211  -1.552  1.00  0.00     0.199 HD  
BRANCH   8  11
ATOM     11  C7  UNL     1       0.171   0.945   0.013  1.00  0.00     0.164 C   
BRANCH  11  12
ATOM     12  C6  UNL     1       1.127   1.644   0.939  1.00  0.00    -0.002 A   
ATOM     13  C1  UNL     1       0.898   2.987   1.323  1.00  0.00     0.012 A   
ATOM     14  C2  UNL     1       1.806   3.660   2.147  1.00  0.00     0.037 A   
ATOM     15  C3  UNL     1       2.928   2.977   2.563  1.00  0.00     0.108 A   
ATOM     16  C5  UNL     1       2.285   0.982   1.382  1.00  0.00     0.045 A   
ATOM     17  C4  UNL     1       3.160   1.676   2.192  1.00  0.00     0.109 A   
ATOM     18  O2  UNL     1       3.913   3.474   3.355  1.00  0.00    -0.316 OA  
ATOM     19  O1  UNL     1       4.322   1.189   2.702  1.00  0.00    -0.316 OA  
ATOM     20  C24 UNL     1       4.797   2.334   3.444  1.00  0.00     0.337 C   
ENDBRANCH  11  12
ENDBRANCH   8  11
ENDBRANCH   7   8
BRANCH   7  21
ATOM     21  C19 UNL     1      -0.081   1.165  -3.809  1.00  0.00     0.043 C   
ATOM     22  C20 UNL     1      -0.277   2.683  -3.893  1.00  0.00     0.010 C   
ATOM     23  C23 UNL     1      -1.038   0.664  -4.895  1.00  0.00     0.010 C   
ATOM     24  C21 UNL     1      -0.502   2.983  -5.374  1.00  0.00     0.001 C   
ATOM     25  C22 UNL     1      -0.838   1.650  -6.038  1.00  0.00     0.001 C   
ENDBRANCH   7  21
ENDBRANCH   1   7
BRANCH   3  26
ATOM     26  C11 UNL     1      -0.702  -4.385  -1.733  1.00  0.00     0.140 C   
BRANCH  26  27
ATOM     27  C12 UNL     1      -0.699  -4.634  -0.228  1.00  0.00     0.078 C   
BRANCH  27  28
ATOM     28  C13 UNL     1      -1.883  -4.032   0.467  1.00  0.00     0.050 A   
ATOM     29  C14 UNL     1      -3.011  -4.719   0.883  1.00  0.00     0.071 A   
ATOM     30  N3  UNL     1      -1.898  -2.667   0.735  1.00  0.00    -0.250 NA  
ATOM     31  S1  UNL     1      -4.096  -3.651   1.664  1.00  0.00    -0.080 S   
ATOM     32  C15 UNL     1      -2.997  -2.372   1.396  1.00  0.00     0.081 A   
BRANCH  32  33
ATOM     33  C16 UNL     1      -3.293  -0.922   1.903  1.00  0.00     0.045 C   
ATOM     34  C17 UNL     1      -2.194  -0.121   2.554  1.00  0.00     0.011 C   
ATOM     35  C18 UNL     1      -3.310  -0.674   3.392  1.00  0.00     0.011 C   
ENDBRANCH  32  33
ENDBRANCH  27  28
ENDBRANCH  26  27
ENDBRANCH   3  26
TORSDOF 9
