REMARK SMILES Cc1ccc(CCn2cc([C@@H]([NH2+]Cc3ccc4c(c3)OCO4)C(C)(C)C)nn2)c(F)c1
REMARK SMILES IDX 8 1 9 2 10 3 27 4 28 5 7 7 6 8 5 9 2 10 3 11 31 12 4 13
REMARK SMILES IDX 29 14 1 15 30 16 11 17 12 18 13 21 14 22 15 23 19 24 16 25
REMARK SMILES IDX 18 26 17 27 20 28 22 29 21 30 23 31 24 32 25 33 26 34
REMARK H PARENT 9 6 12 19 12 20
ROOT
ATOM     1   N1  UNL     1      -2.205   2.072   0.521  1.00  0.00    -0.212 N   
ATOM     2   C8  UNL     1      -1.859   0.890   1.114  1.00  0.00     0.045 A   
ATOM     3   C9  UNL     1      -0.496   0.993   1.284  1.00  0.00     0.127 A   
ATOM     4   N3  UNL     1      -0.072   2.208   0.804  1.00  0.00    -0.132 NA  
ATOM     5   N4  UNL     1      -1.127   2.858   0.341  1.00  0.00    -0.076 NA  
ATOM     6   H10 UNL     1      -2.580   0.108   1.315  1.00  0.00     0.083 HD  
ENDROOT
BRANCH   1   7
ATOM     7   C7  UNL     1      -3.506   2.473   0.030  1.00  0.00     0.139 C   
BRANCH   7   8
ATOM     8   C6  UNL     1      -3.596   2.469  -1.499  1.00  0.00     0.060 C   
BRANCH   8   9
ATOM     9   C5  UNL     1      -3.230   1.155  -2.149  1.00  0.00    -0.011 A   
ATOM     10  C2  UNL     1      -2.558  -1.296  -3.381  1.00  0.00    -0.048 A   
ATOM     11  C3  UNL     1      -1.839  -0.131  -3.674  1.00  0.00     0.004 A   
ATOM     12  C24 UNL     1      -3.626  -1.225  -2.480  1.00  0.00     0.043 A   
ATOM     13  C4  UNL     1      -2.169   1.083  -3.062  1.00  0.00     0.007 A   
ATOM     14  C23 UNL     1      -3.950  -0.012  -1.877  1.00  0.00     0.126 A   
ATOM     15  C1  UNL     1      -2.233  -2.585  -4.079  1.00  0.00     0.044 C   
ATOM     16  F1  UNL     1      -4.968   0.025  -1.005  1.00  0.00    -0.207 F   
ENDBRANCH   8   9
ENDBRANCH   7   8
ENDBRANCH   1   7
BRANCH   3  17
ATOM     17  C10 UNL     1       0.516  -0.004   1.760  1.00  0.00     0.120 C   
BRANCH  17  18
ATOM     18  N2  UNL     1       1.736   0.088   0.862  1.00  0.00     0.250 N   
ATOM     19  H12 UNL     1       1.970   1.090   0.815  1.00  0.00     0.199 HD  
ATOM     20  H13 UNL     1       2.540  -0.393   1.270  1.00  0.00     0.199 HD  
BRANCH  18  21
ATOM     21  C11 UNL     1       1.556  -0.377  -0.546  1.00  0.00     0.164 C   
BRANCH  21  22
ATOM     22  C12 UNL     1       1.408  -1.869  -0.653  1.00  0.00    -0.002 A   
ATOM     23  C13 UNL     1       2.538  -2.715  -0.518  1.00  0.00     0.012 A   
ATOM     24  C17 UNL     1       0.139  -2.439  -0.868  1.00  0.00     0.045 A   
ATOM     25  C14 UNL     1       2.407  -4.108  -0.603  1.00  0.00     0.037 A   
ATOM     26  C16 UNL     1       0.044  -3.815  -0.948  1.00  0.00     0.109 A   
ATOM     27  C15 UNL     1       1.145  -4.626  -0.821  1.00  0.00     0.108 A   
ATOM     28  O1  UNL     1      -1.101  -4.520  -1.154  1.00  0.00    -0.316 OA  
ATOM     29  O2  UNL     1       0.832  -5.946  -0.934  1.00  0.00    -0.316 OA  
ATOM     30  C18 UNL     1      -0.589  -5.875  -1.177  1.00  0.00     0.337 C   
ENDBRANCH  21  22
ENDBRANCH  18  21
ENDBRANCH  17  18
BRANCH  17  31
ATOM     31  C19 UNL     1       0.934   0.166   3.263  1.00  0.00     0.010 C   
ATOM     32  C20 UNL     1       1.707   1.474   3.528  1.00  0.00     0.017 C   
ATOM     33  C21 UNL     1       1.828  -1.018   3.707  1.00  0.00     0.017 C   
ATOM     34  C22 UNL     1      -0.318   0.149   4.171  1.00  0.00     0.017 C   
ENDBRANCH  17  31
ENDBRANCH   3  17
TORSDOF 8
