REMARK SMILES CN(C)c1ccccc1CCn1cc([C@@H]([NH2+]Cc2ccc3c(c2)OCO3)C(C)(C)C)nn1
REMARK SMILES IDX 12 1 13 2 14 3 31 4 32 5 11 7 10 8 9 9 4 10 5 11 6 12 8 13
REMARK SMILES IDX 7 14 2 15 1 16 3 17 15 18 16 19 17 22 18 23 19 24 23 25
REMARK SMILES IDX 20 26 22 27 21 28 24 29 26 30 25 31 27 32 28 33 29 34 30 35
REMARK H PARENT 13 6 16 20 16 21
ROOT
ATOM     1   N2  UNL     1      -0.011   2.443  -0.080  1.00  0.00    -0.212 N   
ATOM     2   C11 UNL     1       0.059   1.079  -0.126  1.00  0.00     0.045 A   
ATOM     3   C12 UNL     1       0.824   0.750   0.970  1.00  0.00     0.127 A   
ATOM     4   N4  UNL     1       1.243   1.903   1.588  1.00  0.00    -0.132 NA  
ATOM     5   N5  UNL     1       0.743   2.932   0.923  1.00  0.00    -0.076 NA  
ATOM     6   H15 UNL     1      -0.463   0.500  -0.874  1.00  0.00     0.083 HD  
ENDROOT
BRANCH   1   7
ATOM     7   C10 UNL     1      -0.771   3.325  -0.940  1.00  0.00     0.139 C   
BRANCH   7   8
ATOM     8   C9  UNL     1      -2.048   3.839  -0.275  1.00  0.00     0.059 C   
BRANCH   8   9
ATOM     9   C8  UNL     1      -2.997   2.741   0.168  1.00  0.00    -0.025 A   
ATOM     10  C3  UNL     1      -3.661   1.907  -0.761  1.00  0.00     0.031 A   
ATOM     11  C4  UNL     1      -4.503   0.896  -0.267  1.00  0.00     0.024 A   
ATOM     12  C5  UNL     1      -4.685   0.708   1.105  1.00  0.00     0.002 A   
ATOM     13  C7  UNL     1      -3.189   2.540   1.548  1.00  0.00     0.006 A   
ATOM     14  C6  UNL     1      -4.029   1.530   2.012  1.00  0.00     0.000 A   
BRANCH  10  15
ATOM     15  N1  UNL     1      -3.488   2.134  -2.147  1.00  0.00    -0.337 N   
ATOM     16  C1  UNL     1      -3.348   0.921  -2.961  1.00  0.00     0.129 C   
ATOM     17  C2  UNL     1      -4.542   3.036  -2.645  1.00  0.00     0.129 C   
ENDBRANCH  10  15
ENDBRANCH   8   9
ENDBRANCH   7   8
ENDBRANCH   1   7
BRANCH   3  18
ATOM     18  C13 UNL     1       1.272  -0.576   1.500  1.00  0.00     0.120 C   
BRANCH  18  19
ATOM     19  N3  UNL     1       2.643  -0.414   2.131  1.00  0.00     0.250 N   
ATOM     20  H17 UNL     1       2.888  -1.222   2.704  1.00  0.00     0.199 HD  
ATOM     21  H18 UNL     1       2.569   0.399   2.759  1.00  0.00     0.199 HD  
BRANCH  19  22
ATOM     22  C14 UNL     1       3.773  -0.133   1.194  1.00  0.00     0.164 C   
BRANCH  22  23
ATOM     23  C15 UNL     1       4.079  -1.288   0.282  1.00  0.00    -0.002 A   
ATOM     24  C16 UNL     1       4.704  -2.455   0.784  1.00  0.00     0.012 A   
ATOM     25  C20 UNL     1       3.719  -1.226  -1.076  1.00  0.00     0.045 A   
ATOM     26  C17 UNL     1       4.963  -3.547  -0.051  1.00  0.00     0.037 A   
ATOM     27  C19 UNL     1       3.986  -2.321  -1.871  1.00  0.00     0.109 A   
ATOM     28  C18 UNL     1       4.591  -3.449  -1.374  1.00  0.00     0.108 A   
ATOM     29  O1  UNL     1       3.699  -2.425  -3.195  1.00  0.00    -0.316 OA  
ATOM     30  O2  UNL     1       4.763  -4.405  -2.323  1.00  0.00    -0.316 OA  
ATOM     31  C21 UNL     1       4.222  -3.742  -3.486  1.00  0.00     0.337 C   
ENDBRANCH  22  23
ENDBRANCH  19  22
ENDBRANCH  18  19
BRANCH  18  32
ATOM     32  C22 UNL     1       0.274  -1.225   2.526  1.00  0.00     0.010 C   
ATOM     33  C23 UNL     1      -1.109  -1.427   1.866  1.00  0.00     0.017 C   
ATOM     34  C24 UNL     1       0.085  -0.369   3.794  1.00  0.00     0.017 C   
ATOM     35  C25 UNL     1       0.772  -2.625   2.955  1.00  0.00     0.017 C   
ENDBRANCH  18  32
ENDBRANCH   3  18
TORSDOF 9
