REMARK SMILES O=C(c1cnccn1)n1cc([C@@H]([NH2+]Cc2ccc3c(c2)OCO3)C2CCCCC2)nn1
REMARK SMILES IDX 12 1 11 2 9 3 10 4 31 5 30 6 2 7 1 8 3 9 4 10 8 11 5 12 7 13
REMARK SMILES IDX 6 14 13 15 14 18 15 19 16 20 20 21 17 22 19 23 18 24 21 25
REMARK SMILES IDX 23 26 22 27 24 28 25 29 29 30 26 31 28 32 27 33
REMARK H PARENT 13 16 13 17
ROOT
ATOM     1   C8  UNL     1       0.188  -1.040  -1.653  1.00  0.00     0.117 C   
ENDROOT
BRANCH   1   2
ATOM     2   C7  UNL     1      -0.845   0.022  -1.427  1.00  0.00     0.128 A   
ATOM     3   N3  UNL     1      -2.342   1.627  -1.516  1.00  0.00    -0.142 N   
ATOM     4   C6  UNL     1      -1.609   0.753  -2.306  1.00  0.00     0.139 A   
ATOM     5   N6  UNL     1      -2.008   1.419  -0.219  1.00  0.00    -0.068 NA  
ATOM     6   N5  UNL     1      -1.101   0.456  -0.155  1.00  0.00    -0.131 NA  
BRANCH   3   7
ATOM     7   C1  UNL     1      -3.301   2.562  -1.932  1.00  0.00     0.291 C   
ATOM     8   O1  UNL     1      -3.576   2.544  -3.134  1.00  0.00    -0.268 OA  
BRANCH   7   9
ATOM     9   C2  UNL     1      -3.985   3.536  -1.054  1.00  0.00     0.146 A   
ATOM     10  C3  UNL     1      -5.109   4.204  -1.522  1.00  0.00     0.145 A   
ATOM     11  N2  UNL     1      -3.467   3.785   0.175  1.00  0.00    -0.248 NA  
ATOM     12  N1  UNL     1      -5.771   5.126  -0.779  1.00  0.00    -0.261 NA  
ATOM     13  C5  UNL     1      -4.131   4.707   0.914  1.00  0.00     0.132 A   
ATOM     14  C4  UNL     1      -5.258   5.364   0.449  1.00  0.00     0.131 A   
ENDBRANCH   7   9
ENDBRANCH   3   7
ENDBRANCH   1   2
BRANCH   1  15
ATOM     15  N4  UNL     1       1.133  -1.055  -0.476  1.00  0.00     0.249 N   
ATOM     16  H6  UNL     1       0.704  -1.553   0.312  1.00  0.00     0.199 HD  
ATOM     17  H7  UNL     1       1.195  -0.089  -0.121  1.00  0.00     0.199 HD  
BRANCH  15  18
ATOM     18  C9  UNL     1       2.509  -1.553  -0.717  1.00  0.00     0.164 C   
BRANCH  18  19
ATOM     19  C10 UNL     1       3.315  -1.512   0.550  1.00  0.00    -0.002 A   
ATOM     20  C11 UNL     1       3.413  -2.661   1.370  1.00  0.00     0.012 A   
ATOM     21  C15 UNL     1       3.932  -0.316   0.958  1.00  0.00     0.045 A   
ATOM     22  C12 UNL     1       4.123  -2.625   2.575  1.00  0.00     0.037 A   
ATOM     23  C14 UNL     1       4.619  -0.314   2.154  1.00  0.00     0.109 A   
ATOM     24  C13 UNL     1       4.713  -1.435   2.940  1.00  0.00     0.108 A   
ATOM     25  O2  UNL     1       5.263   0.755   2.693  1.00  0.00    -0.316 OA  
ATOM     26  O3  UNL     1       5.430  -1.216   4.072  1.00  0.00    -0.316 OA  
ATOM     27  C16 UNL     1       5.777   0.177   3.915  1.00  0.00     0.337 C   
ENDBRANCH  18  19
ENDBRANCH  15  18
ENDBRANCH   1  15
BRANCH   1  28
ATOM     28  C17 UNL     1      -0.388  -2.463  -1.887  1.00  0.00     0.043 C   
ATOM     29  C18 UNL     1      -1.109  -2.565  -3.247  1.00  0.00     0.010 C   
ATOM     30  C22 UNL     1      -1.313  -2.969  -0.759  1.00  0.00     0.010 C   
ATOM     31  C19 UNL     1      -1.606  -3.984  -3.518  1.00  0.00     0.001 C   
ATOM     32  C21 UNL     1      -1.825  -4.382  -1.039  1.00  0.00     0.001 C   
ATOM     33  C20 UNL     1      -2.512  -4.480  -2.397  1.00  0.00     0.000 C   
ENDBRANCH   1  28
TORSDOF 7
