REMARK SMILES Cc1ncc(Cn2cc([C@@H]([NH2+]Cc3ccc4c(c3)OCO4)C3CCCC3)nn2)cn1
REMARK SMILES IDX 7 1 8 2 9 3 27 4 28 5 6 7 5 8 2 9 3 10 30 11 4 12 29 13 1 14
REMARK SMILES IDX 10 15 11 16 12 19 13 20 14 21 18 22 15 23 17 24 16 25 19 26
REMARK SMILES IDX 21 27 20 28 22 29 23 30 26 31 24 32 25 33
REMARK H PARENT 8 6 11 17 11 18
ROOT
ATOM     1   N2  UNL     1       1.706  -1.617  -0.779  1.00  0.00    -0.208 N   
ATOM     2   C6  UNL     1       1.334  -0.316  -0.974  1.00  0.00     0.046 A   
ATOM     3   C7  UNL     1       1.542   0.274   0.253  1.00  0.00     0.127 A   
ATOM     4   N4  UNL     1       2.027  -0.664   1.128  1.00  0.00    -0.132 NA  
ATOM     5   N5  UNL     1       2.123  -1.816   0.485  1.00  0.00    -0.076 NA  
ATOM     6   H7  UNL     1       0.956   0.048  -1.919  1.00  0.00     0.083 HD  
ENDROOT
BRANCH   1   7
ATOM     7   C5  UNL     1       1.690  -2.712  -1.734  1.00  0.00     0.172 C   
BRANCH   7   8
ATOM     8   C4  UNL     1       0.301  -3.214  -1.940  1.00  0.00     0.008 A   
ATOM     9   C2  UNL     1      -2.253  -4.072  -2.277  1.00  0.00     0.125 A   
ATOM     10  N1  UNL     1      -1.745  -3.234  -3.200  1.00  0.00    -0.241 NA  
ATOM     11  N6  UNL     1      -1.584  -4.500  -1.190  1.00  0.00    -0.241 NA  
ATOM     12  C3  UNL     1      -0.474  -2.835  -3.016  1.00  0.00     0.120 A   
ATOM     13  C22 UNL     1      -0.321  -4.058  -1.044  1.00  0.00     0.120 A   
ATOM     14  C1  UNL     1      -3.671  -4.517  -2.447  1.00  0.00     0.089 C   
ENDBRANCH   7   8
ENDBRANCH   1   7
BRANCH   3  15
ATOM     15  C8  UNL     1       1.284   1.662   0.744  1.00  0.00     0.117 C   
BRANCH  15  16
ATOM     16  N3  UNL     1       0.840   1.593   2.192  1.00  0.00     0.249 N   
ATOM     17  H9  UNL     1       1.351   2.266   2.769  1.00  0.00     0.199 HD  
ATOM     18  H10 UNL     1       1.140   0.666   2.537  1.00  0.00     0.199 HD  
BRANCH  16  19
ATOM     19  C9  UNL     1      -0.619   1.737   2.440  1.00  0.00     0.164 C   
BRANCH  19  20
ATOM     20  C10 UNL     1      -1.443   0.599   1.908  1.00  0.00    -0.002 A   
ATOM     21  C11 UNL     1      -2.262   0.774   0.767  1.00  0.00     0.012 A   
ATOM     22  C15 UNL     1      -1.405  -0.655   2.543  1.00  0.00     0.045 A   
ATOM     23  C12 UNL     1      -3.042  -0.278   0.272  1.00  0.00     0.037 A   
ATOM     24  C14 UNL     1      -2.191  -1.668   2.034  1.00  0.00     0.109 A   
ATOM     25  C13 UNL     1      -2.990  -1.484   0.933  1.00  0.00     0.108 A   
ATOM     26  O1  UNL     1      -2.287  -2.924   2.542  1.00  0.00    -0.316 OA  
ATOM     27  O2  UNL     1      -3.701  -2.597   0.616  1.00  0.00    -0.316 OA  
ATOM     28  C16 UNL     1      -3.270  -3.505   1.654  1.00  0.00     0.337 C   
ENDBRANCH  19  20
ENDBRANCH  16  19
ENDBRANCH  15  16
BRANCH  15  29
ATOM     29  C17 UNL     1       2.536   2.557   0.653  1.00  0.00     0.043 C   
ATOM     30  C18 UNL     1       3.041   2.758  -0.779  1.00  0.00     0.010 C   
ATOM     31  C21 UNL     1       2.302   4.003   1.111  1.00  0.00     0.010 C   
ATOM     32  C19 UNL     1       3.987   3.943  -0.659  1.00  0.00     0.001 C   
ATOM     33  C20 UNL     1       3.384   4.834   0.422  1.00  0.00     0.001 C   
ENDBRANCH  15  29
ENDBRANCH   3  15
TORSDOF 7
