REMARK SMILES COc1ncccc1Cn1cc([C@@H]([NH2+]Cc2ccc3c(c2)OCO3)C2CCCC2)nn1
REMARK SMILES IDX 10 1 11 2 12 3 30 4 31 5 9 7 8 8 3 9 4 10 5 11 7 12 6 13
REMARK SMILES IDX 2 14 1 15 13 16 14 17 15 20 16 21 17 22 21 23 18 24 20 25
REMARK SMILES IDX 19 26 22 27 24 28 23 29 25 30 26 31 29 32 27 33 28 34
REMARK H PARENT 11 6 14 18 14 19
ROOT
ATOM     1   N2  UNL     1       3.195   0.439  -1.387  1.00  0.00    -0.208 N   
ATOM     2   C8  UNL     1       1.876   0.793  -1.304  1.00  0.00     0.046 A   
ATOM     3   C9  UNL     1       1.541   0.521   0.003  1.00  0.00     0.127 A   
ATOM     4   N4  UNL     1       2.646   0.048   0.664  1.00  0.00    -0.132 NA  
ATOM     5   N5  UNL     1       3.651   0.005  -0.195  1.00  0.00    -0.076 NA  
ATOM     6   H9  UNL     1       1.322   1.163  -2.156  1.00  0.00     0.083 HD  
ENDROOT
BRANCH   1   7
ATOM     7   C7  UNL     1       4.072   0.490  -2.545  1.00  0.00     0.174 C   
BRANCH   7   8
ATOM     8   C6  UNL     1       4.097  -0.830  -3.259  1.00  0.00     0.021 A   
ATOM     9   C2  UNL     1       3.109  -1.188  -4.174  1.00  0.00     0.171 A   
ATOM     10  N1  UNL     1       3.070  -2.377  -4.812  1.00  0.00    -0.233 NA  
ATOM     11  C3  UNL     1       4.067  -3.248  -4.550  1.00  0.00     0.114 A   
ATOM     12  C5  UNL     1       5.106  -1.767  -3.003  1.00  0.00     0.011 A   
ATOM     13  C4  UNL     1       5.096  -2.993  -3.662  1.00  0.00     0.021 A   
BRANCH   9  14
ATOM     14  O1  UNL     1       2.098  -0.273  -4.403  1.00  0.00    -0.332 OA  
ATOM     15  C1  UNL     1       1.261  -0.634  -5.501  1.00  0.00     0.205 C   
ENDBRANCH   9  14
ENDBRANCH   7   8
ENDBRANCH   1   7
BRANCH   3  16
ATOM     16  C10 UNL     1       0.239   0.616   0.729  1.00  0.00     0.117 C   
BRANCH  16  17
ATOM     17  N3  UNL     1       0.194  -0.419   1.829  1.00  0.00     0.249 N   
ATOM     18  H11 UNL     1      -0.471  -0.157   2.560  1.00  0.00     0.199 HD  
ATOM     19  H12 UNL     1       1.132  -0.411   2.256  1.00  0.00     0.199 HD  
BRANCH  17  20
ATOM     20  C11 UNL     1      -0.072  -1.821   1.392  1.00  0.00     0.164 C   
BRANCH  20  21
ATOM     21  C12 UNL     1      -1.510  -2.040   1.012  1.00  0.00    -0.002 A   
ATOM     22  C13 UNL     1      -2.511  -2.115   2.012  1.00  0.00     0.012 A   
ATOM     23  C17 UNL     1      -1.877  -2.137  -0.341  1.00  0.00     0.045 A   
ATOM     24  C14 UNL     1      -3.857  -2.275   1.670  1.00  0.00     0.037 A   
ATOM     25  C16 UNL     1      -3.213  -2.294  -0.643  1.00  0.00     0.109 A   
ATOM     26  C15 UNL     1      -4.176  -2.359   0.333  1.00  0.00     0.108 A   
ATOM     27  O2  UNL     1      -3.734  -2.391  -1.894  1.00  0.00    -0.316 OA  
ATOM     28  O3  UNL     1      -5.424  -2.507  -0.180  1.00  0.00    -0.316 OA  
ATOM     29  C18 UNL     1      -5.138  -2.556  -1.595  1.00  0.00     0.337 C   
ENDBRANCH  20  21
ENDBRANCH  17  20
ENDBRANCH  16  17
BRANCH  16  30
ATOM     30  C19 UNL     1       0.003   2.025   1.307  1.00  0.00     0.043 C   
ATOM     31  C20 UNL     1      -1.418   2.249   1.862  1.00  0.00     0.010 C   
ATOM     32  C23 UNL     1       0.941   2.457   2.442  1.00  0.00     0.010 C   
ATOM     33  C21 UNL     1      -1.252   3.042   3.157  1.00  0.00     0.001 C   
ATOM     34  C22 UNL     1       0.170   3.579   3.119  1.00  0.00     0.001 C   
ENDBRANCH  16  30
ENDBRANCH   3  16
TORSDOF 8
