REMARK SMILES CC(C)[C@H]([NH2+]Cc1ccc2c(c1)OCO2)c1cn(CCc2cnco2)nn1
REMARK SMILES IDX 16 1 17 2 18 3 26 4 27 5 4 7 2 8 1 9 3 10 5 11 6 14 7 15
REMARK SMILES IDX 8 16 12 17 9 18 11 19 10 20 13 21 15 22 14 23 19 24 20 25
REMARK SMILES IDX 21 26 22 27 25 28 23 29 24 30
REMARK H PARENT 17 6 5 12 5 13
ROOT
ATOM     1   C13 UNL     1      -0.998   0.277   1.190  1.00  0.00     0.127 A   
ATOM     2   C14 UNL     1      -1.223   0.665   2.491  1.00  0.00     0.045 A   
ATOM     3   N2  UNL     1      -0.877   1.987   2.505  1.00  0.00    -0.212 N   
ATOM     4   N4  UNL     1      -0.529   2.408   1.276  1.00  0.00    -0.076 NA  
ATOM     5   N5  UNL     1      -0.585   1.366   0.463  1.00  0.00    -0.132 NA  
ATOM     6   H18 UNL     1      -1.529   0.136   3.384  1.00  0.00     0.083 HD  
ENDROOT
BRANCH   1   7
ATOM     7   C4  UNL     1      -1.116  -1.059   0.524  1.00  0.00     0.117 C   
BRANCH   7   8
ATOM     8   C2  UNL     1       0.042  -2.012   0.926  1.00  0.00     0.037 C   
ATOM     9   C1  UNL     1       1.415  -1.576   0.399  1.00  0.00     0.014 C   
ATOM     10  C3  UNL     1      -0.240  -3.458   0.503  1.00  0.00     0.014 C   
ENDBRANCH   7   8
BRANCH   7  11
ATOM     11  N1  UNL     1      -1.162  -0.898  -0.972  1.00  0.00     0.249 N   
ATOM     12  H9  UNL     1      -0.459  -0.182  -1.212  1.00  0.00     0.199 HD  
ATOM     13  H10 UNL     1      -0.883  -1.750  -1.465  1.00  0.00     0.199 HD  
BRANCH  11  14
ATOM     14  C5  UNL     1      -2.465  -0.427  -1.518  1.00  0.00     0.164 C   
BRANCH  14  15
ATOM     15  C6  UNL     1      -2.350  -0.176  -2.995  1.00  0.00    -0.002 A   
ATOM     16  C7  UNL     1      -1.903   1.082  -3.467  1.00  0.00     0.012 A   
ATOM     17  C11 UNL     1      -2.628  -1.202  -3.913  1.00  0.00     0.045 A   
ATOM     18  C8  UNL     1      -1.747   1.321  -4.836  1.00  0.00     0.037 A   
ATOM     19  C10 UNL     1      -2.462  -0.933  -5.256  1.00  0.00     0.109 A   
ATOM     20  C9  UNL     1      -2.034   0.292  -5.705  1.00  0.00     0.108 A   
ATOM     21  O1  UNL     1      -2.684  -1.810  -6.270  1.00  0.00    -0.316 OA  
ATOM     22  O2  UNL     1      -1.937   0.343  -7.059  1.00  0.00    -0.316 OA  
ATOM     23  C12 UNL     1      -2.366  -0.989  -7.418  1.00  0.00     0.337 C   
ENDBRANCH  14  15
ENDBRANCH  11  14
ENDBRANCH   7  11
ENDBRANCH   1   7
BRANCH   3  24
ATOM     24  C15 UNL     1      -0.764   2.869   3.649  1.00  0.00     0.141 C   
BRANCH  24  25
ATOM     25  C16 UNL     1       0.687   3.105   4.067  1.00  0.00     0.085 C   
BRANCH  25  26
ATOM     26  C17 UNL     1       1.371   1.839   4.423  1.00  0.00     0.081 A   
ATOM     27  C18 UNL     1       2.321   1.052   3.814  1.00  0.00     0.142 A   
ATOM     28  O3  UNL     1       0.999   1.223   5.585  1.00  0.00    -0.301 OA  
ATOM     29  N3  UNL     1       2.536  -0.076   4.562  1.00  0.00    -0.237 NA  
ATOM     30  C19 UNL     1       1.762   0.094   5.610  1.00  0.00     0.246 A   
ENDBRANCH  25  26
ENDBRANCH  24  25
ENDBRANCH   3  24
TORSDOF 8
