REMARK SMILES COc1ccnc(CCn2cc([C@H](CC(C)C)[NH2+]Cc3ccc4c(c3)OCO4)nn2)c1
REMARK SMILES IDX 10 1 11 2 12 3 29 4 30 5 9 7 8 8 7 9 3 10 4 11 31 12 5 13
REMARK SMILES IDX 6 14 2 15 1 16 13 17 14 18 15 19 16 20 17 21 18 22 19 25
REMARK SMILES IDX 20 26 21 27 25 28 22 29 24 30 23 31 26 32 28 33 27 34
REMARK H PARENT 11 6 18 23 18 24
ROOT
ATOM     1   N2  UNL     1      -2.926   1.565  -1.367  1.00  0.00    -0.212 N   
ATOM     2   C8  UNL     1      -2.580   1.250  -0.084  1.00  0.00     0.045 A   
ATOM     3   C9  UNL     1      -1.410   1.946   0.122  1.00  0.00     0.127 A   
ATOM     4   N4  UNL     1      -1.096   2.649  -1.013  1.00  0.00    -0.132 NA  
ATOM     5   N5  UNL     1      -2.035   2.414  -1.914  1.00  0.00    -0.076 NA  
ATOM     6   H10 UNL     1      -3.154   0.559   0.519  1.00  0.00     0.083 HD  
ENDROOT
BRANCH   1   7
ATOM     7   C7  UNL     1      -3.992   0.999  -2.169  1.00  0.00     0.140 C   
BRANCH   7   8
ATOM     8   C6  UNL     1      -3.471   0.147  -3.324  1.00  0.00     0.077 C   
BRANCH   8   9
ATOM     9   C5  UNL     1      -2.610  -0.991  -2.834  1.00  0.00     0.045 A   
ATOM     10  C2  UNL     1      -0.482  -2.027  -2.511  1.00  0.00     0.078 A   
ATOM     11  C3  UNL     1      -1.110  -3.080  -1.864  1.00  0.00     0.053 A   
ATOM     12  C23 UNL     1      -1.230  -0.965  -3.003  1.00  0.00     0.057 A   
ATOM     13  C4  UNL     1      -2.485  -3.022  -1.733  1.00  0.00     0.114 A   
ATOM     14  N1  UNL     1      -3.239  -1.993  -2.180  1.00  0.00    -0.261 NA  
BRANCH  10  15
ATOM     15  O1  UNL     1       0.882  -1.931  -2.608  1.00  0.00    -0.349 OA  
ATOM     16  C1  UNL     1       1.443  -3.049  -3.308  1.00  0.00     0.203 C   
ENDBRANCH  10  15
ENDBRANCH   8   9
ENDBRANCH   7   8
ENDBRANCH   1   7
BRANCH   3  17
ATOM     17  C10 UNL     1      -0.460   1.950   1.270  1.00  0.00     0.114 C   
BRANCH  17  18
ATOM     18  C11 UNL     1      -0.428   3.301   2.010  1.00  0.00     0.064 C   
BRANCH  18  19
ATOM     19  C12 UNL     1      -1.760   3.709   2.676  1.00  0.00    -0.012 C   
ATOM     20  C13 UNL     1      -1.616   5.096   3.311  1.00  0.00     0.007 C   
ATOM     21  C14 UNL     1      -2.217   2.702   3.733  1.00  0.00     0.007 C   
ENDBRANCH  18  19
ENDBRANCH  17  18
BRANCH  17  22
ATOM     22  N3  UNL     1       0.944   1.691   0.761  1.00  0.00     0.249 N   
ATOM     23  H21 UNL     1       1.632   1.888   1.495  1.00  0.00     0.199 HD  
ATOM     24  H22 UNL     1       1.103   2.370   0.003  1.00  0.00     0.199 HD  
BRANCH  22  25
ATOM     25  C15 UNL     1       1.201   0.330   0.195  1.00  0.00     0.164 C   
BRANCH  25  26
ATOM     26  C16 UNL     1       1.176  -0.751   1.241  1.00  0.00    -0.002 A   
ATOM     27  C17 UNL     1       0.037  -1.579   1.387  1.00  0.00     0.012 A   
ATOM     28  C21 UNL     1       2.270  -0.924   2.108  1.00  0.00     0.045 A   
ATOM     29  C18 UNL     1      -0.017  -2.564   2.378  1.00  0.00     0.037 A   
ATOM     30  C20 UNL     1       2.185  -1.905   3.074  1.00  0.00     0.109 A   
ATOM     31  C19 UNL     1       1.073  -2.700   3.208  1.00  0.00     0.108 A   
ATOM     32  O2  UNL     1       3.147  -2.202   3.987  1.00  0.00    -0.316 OA  
ATOM     33  O3  UNL     1       1.194  -3.594   4.224  1.00  0.00    -0.316 OA  
ATOM     34  C22 UNL     1       2.521  -3.291   4.705  1.00  0.00     0.337 C   
ENDBRANCH  25  26
ENDBRANCH  22  25
ENDBRANCH  17  22
ENDBRANCH   3  17
TORSDOF 10
