REMARK SMILES COc1ccc(-n2cc([C@@H]([NH2+]Cc3ccc4c(c3)OCO4)C(C)C)nn2)c(F)c1
REMARK SMILES IDX 7 1 8 2 9 3 25 4 26 5 6 6 3 7 4 8 29 9 5 10 27 11 28 12 2 13
REMARK SMILES IDX 1 14 10 15 11 16 12 19 13 20 14 21 18 22 15 23 17 24 16 25
REMARK SMILES IDX 19 26 21 27 20 28 22 29 23 30 24 31
REMARK H PARENT 11 17 11 18
ROOT
ATOM     1   N1  UNL     1      -2.988   0.052   0.340  1.00  0.00    -0.178 N   
ATOM     2   C6  UNL     1      -2.206  -0.526   1.322  1.00  0.00     0.135 A   
ATOM     3   C7  UNL     1      -0.939  -0.025   1.122  1.00  0.00     0.127 A   
ATOM     4   N3  UNL     1      -0.954   0.800   0.035  1.00  0.00    -0.131 NA  
ATOM     5   N4  UNL     1      -2.189   0.836  -0.435  1.00  0.00    -0.071 NA  
ENDROOT
BRANCH   1   6
ATOM     6   C5  UNL     1      -4.371  -0.083   0.076  1.00  0.00     0.093 A   
ATOM     7   C2  UNL     1      -7.121  -0.319  -0.488  1.00  0.00     0.078 A   
ATOM     8   C3  UNL     1      -6.313   0.504  -1.272  1.00  0.00     0.035 A   
ATOM     9   C21 UNL     1      -6.550  -1.021   0.574  1.00  0.00     0.074 A   
ATOM     10  C4  UNL     1      -4.945   0.624  -0.994  1.00  0.00     0.032 A   
ATOM     11  C20 UNL     1      -5.190  -0.903   0.852  1.00  0.00     0.149 A   
ATOM     12  F1  UNL     1      -4.707  -1.607   1.884  1.00  0.00    -0.205 F   
BRANCH   7  13
ATOM     13  O1  UNL     1      -8.461  -0.525  -0.652  1.00  0.00    -0.349 OA  
ATOM     14  C1  UNL     1      -9.102   0.176  -1.711  1.00  0.00     0.203 C   
ENDBRANCH   7  13
ENDBRANCH   1   6
BRANCH   3  15
ATOM     15  C8  UNL     1       0.349  -0.281   1.839  1.00  0.00     0.117 C   
BRANCH  15  16
ATOM     16  N2  UNL     1       1.509  -0.147   0.882  1.00  0.00     0.249 N   
ATOM     17  H8  UNL     1       1.343   0.706   0.326  1.00  0.00     0.199 HD  
ATOM     18  H9  UNL     1       2.392   0.003   1.381  1.00  0.00     0.199 HD  
BRANCH  16  19
ATOM     19  C9  UNL     1       1.680  -1.272  -0.078  1.00  0.00     0.164 C   
BRANCH  19  20
ATOM     20  C10 UNL     1       2.817  -0.989  -1.018  1.00  0.00    -0.002 A   
ATOM     21  C11 UNL     1       4.120  -1.464  -0.734  1.00  0.00     0.012 A   
ATOM     22  C15 UNL     1       2.601  -0.202  -2.163  1.00  0.00     0.045 A   
ATOM     23  C12 UNL     1       5.192  -1.167  -1.582  1.00  0.00     0.037 A   
ATOM     24  C14 UNL     1       3.680   0.072  -2.977  1.00  0.00     0.109 A   
ATOM     25  C13 UNL     1       4.939  -0.397  -2.695  1.00  0.00     0.108 A   
ATOM     26  O2  UNL     1       3.644   0.814  -4.114  1.00  0.00    -0.316 OA  
ATOM     27  O3  UNL     1       5.855  -0.011  -3.621  1.00  0.00    -0.316 OA  
ATOM     28  C16 UNL     1       5.026   0.740  -4.534  1.00  0.00     0.337 C   
ENDBRANCH  19  20
ENDBRANCH  16  19
ENDBRANCH  15  16
BRANCH  15  29
ATOM     29  C17 UNL     1       0.602   0.659   3.046  1.00  0.00     0.037 C   
ATOM     30  C18 UNL     1       0.647   2.148   2.684  1.00  0.00     0.014 C   
ATOM     31  C19 UNL     1      -0.416   0.429   4.168  1.00  0.00     0.014 C   
ENDBRANCH  15  29
ENDBRANCH   3  15
TORSDOF 7
