REMARK SMILES CC(C)(C)[C@H]([NH2+]Cc1ccc2c(c1)OCO2)c1cn(CCc2ccc(O)cc2F)nn1
REMARK SMILES IDX 17 1 18 2 19 3 30 4 31 5 5 7 2 8 1 9 3 10 4 11 6 12 7 15
REMARK SMILES IDX 8 16 9 17 13 18 10 19 12 20 11 21 14 22 16 23 15 24 20 25
REMARK SMILES IDX 21 26 22 27 23 28 28 29 24 30 27 31 25 32 29 33 26 34
REMARK H PARENT 18 6 6 13 6 14 26 35
ROOT
ATOM     1   C14 UNL     1       1.587  -0.804  -0.888  1.00  0.00     0.127 A   
ATOM     2   C15 UNL     1       2.597  -0.106  -1.512  1.00  0.00     0.045 A   
ATOM     3   N2  UNL     1       2.005   0.389  -2.641  1.00  0.00    -0.212 N   
ATOM     4   N3  UNL     1       0.722  -0.006  -2.726  1.00  0.00    -0.076 NA  
ATOM     5   N4  UNL     1       0.450  -0.730  -1.653  1.00  0.00    -0.132 NA  
ATOM     6   H20 UNL     1       3.620   0.124  -1.246  1.00  0.00     0.083 HD  
ENDROOT
BRANCH   1   7
ATOM     7   C5  UNL     1       1.527  -1.449   0.463  1.00  0.00     0.120 C   
BRANCH   7   8
ATOM     8   C2  UNL     1       1.691  -3.007   0.445  1.00  0.00     0.010 C   
ATOM     9   C1  UNL     1       3.015  -3.391  -0.255  1.00  0.00     0.017 C   
ATOM     10  C3  UNL     1       1.769  -3.554   1.889  1.00  0.00     0.017 C   
ATOM     11  C4  UNL     1       0.534  -3.724  -0.279  1.00  0.00     0.017 C   
ENDBRANCH   7   8
BRANCH   7  12
ATOM     12  N1  UNL     1       0.220  -1.057   1.113  1.00  0.00     0.250 N   
ATOM     13  H11 UNL     1      -0.511  -1.189   0.397  1.00  0.00     0.199 HD  
ATOM     14  H12 UNL     1      -0.033  -1.665   1.895  1.00  0.00     0.199 HD  
BRANCH  12  15
ATOM     15  C6  UNL     1       0.140   0.363   1.563  1.00  0.00     0.164 C   
BRANCH  15  16
ATOM     16  C7  UNL     1      -1.257   0.698   1.998  1.00  0.00    -0.002 A   
ATOM     17  C8  UNL     1      -2.223   1.085   1.036  1.00  0.00     0.012 A   
ATOM     18  C12 UNL     1      -1.630   0.579   3.346  1.00  0.00     0.045 A   
ATOM     19  C9  UNL     1      -3.540   1.363   1.414  1.00  0.00     0.037 A   
ATOM     20  C11 UNL     1      -2.938   0.860   3.684  1.00  0.00     0.109 A   
ATOM     21  C10 UNL     1      -3.866   1.241   2.746  1.00  0.00     0.108 A   
ATOM     22  O1  UNL     1      -3.462   0.794   4.936  1.00  0.00    -0.316 OA  
ATOM     23  O2  UNL     1      -5.090   1.467   3.290  1.00  0.00    -0.316 OA  
ATOM     24  C13 UNL     1      -4.825   1.204   4.685  1.00  0.00     0.337 C   
ENDBRANCH  15  16
ENDBRANCH  12  15
ENDBRANCH   7  12
ENDBRANCH   1   7
BRANCH   3  25
ATOM     25  C16 UNL     1       2.549   1.351  -3.578  1.00  0.00     0.139 C   
BRANCH  25  26
ATOM     26  C17 UNL     1       1.881   2.727  -3.477  1.00  0.00     0.060 C   
BRANCH  26  27
ATOM     27  C18 UNL     1       1.851   3.289  -2.074  1.00  0.00    -0.010 A   
ATOM     28  C19 UNL     1       0.633   3.456  -1.401  1.00  0.00     0.009 A   
ATOM     29  C23 UNL     1       3.036   3.616  -1.405  1.00  0.00     0.129 A   
ATOM     30  C20 UNL     1       0.615   3.915  -0.082  1.00  0.00     0.033 A   
ATOM     31  C22 UNL     1       3.028   4.080  -0.092  1.00  0.00     0.072 A   
ATOM     32  C21 UNL     1       1.811   4.216   0.562  1.00  0.00     0.074 A   
ATOM     33  F1  UNL     1       4.213   3.442  -2.021  1.00  0.00    -0.207 F   
BRANCH  32  34
ATOM     34  O3  UNL     1       1.744   4.628   1.858  1.00  0.00    -0.361 OA  
ATOM     35  H27 UNL     1       2.570   5.093   2.085  1.00  0.00     0.218 HD  
ENDBRANCH  32  34
ENDBRANCH  26  27
ENDBRANCH  25  26
ENDBRANCH   3  25
TORSDOF 9
