REMARK SMILES Cn1cc(Cn2cc([C@@H]([NH2+]Cc3ccc4c(c3)OCO4)C3CCCC3)nn2)c2ccccc21
REMARK SMILES IDX 6 1 7 2 8 3 26 4 27 5 5 7 4 8 2 9 3 10 33 11 28 12 32 13
REMARK SMILES IDX 29 14 31 15 30 16 1 17 9 18 10 19 11 22 12 23 13 24 17 25
REMARK SMILES IDX 14 26 16 27 15 28 18 29 20 30 19 31 21 32 22 33 25 34 23 35
REMARK SMILES IDX 24 36
REMARK H PARENT 7 6 10 20 10 21
ROOT
ATOM     1   N2  UNL     1      -1.258  -1.111  -3.384  1.00  0.00    -0.208 N   
ATOM     2   C5  UNL     1      -0.737   0.070  -2.922  1.00  0.00     0.046 A   
ATOM     3   C6  UNL     1       0.157  -0.322  -1.952  1.00  0.00     0.127 A   
ATOM     4   N4  UNL     1       0.202  -1.691  -1.902  1.00  0.00    -0.132 NA  
ATOM     5   N5  UNL     1      -0.660  -2.163  -2.788  1.00  0.00    -0.076 NA  
ATOM     6   H7  UNL     1      -1.101   1.030  -3.259  1.00  0.00     0.083 HD  
ENDROOT
BRANCH   1   7
ATOM     7   C4  UNL     1      -2.392  -1.304  -4.277  1.00  0.00     0.171 C   
BRANCH   7   8
ATOM     8   C3  UNL     1      -3.608  -0.632  -3.720  1.00  0.00    -0.005 A   
ATOM     9   N1  UNL     1      -5.344   0.754  -3.463  1.00  0.00    -0.309 N   
ATOM     10  C2  UNL     1      -4.307   0.412  -4.295  1.00  0.00     0.081 A   
ATOM     11  C26 UNL     1      -5.328  -0.036  -2.334  1.00  0.00     0.040 A   
ATOM     12  C21 UNL     1      -4.266  -0.935  -2.481  1.00  0.00     0.002 A   
ATOM     13  C25 UNL     1      -6.161  -0.056  -1.202  1.00  0.00     0.024 A   
ATOM     14  C22 UNL     1      -4.042  -1.893  -1.467  1.00  0.00     0.010 A   
ATOM     15  C24 UNL     1      -5.911  -1.010  -0.210  1.00  0.00     0.002 A   
ATOM     16  C23 UNL     1      -4.869  -1.921  -0.340  1.00  0.00     0.001 A   
ATOM     17  C1  UNL     1      -6.298   1.797  -3.774  1.00  0.00     0.136 C   
ENDBRANCH   7   8
ENDBRANCH   1   7
BRANCH   3  18
ATOM     18  C7  UNL     1       0.912   0.474  -0.941  1.00  0.00     0.117 C   
BRANCH  18  19
ATOM     19  N3  UNL     1       0.679  -0.119   0.427  1.00  0.00     0.249 N   
ATOM     20  H9  UNL     1       1.313   0.279   1.125  1.00  0.00     0.199 HD  
ATOM     21  H10 UNL     1       0.906  -1.122   0.360  1.00  0.00     0.199 HD  
BRANCH  19  22
ATOM     22  C8  UNL     1      -0.722  -0.012   0.935  1.00  0.00     0.164 C   
BRANCH  22  23
ATOM     23  C9  UNL     1      -0.826  -0.602   2.313  1.00  0.00    -0.002 A   
ATOM     24  C10 UNL     1      -0.757   0.228   3.457  1.00  0.00     0.012 A   
ATOM     25  C14 UNL     1      -0.946  -1.995   2.472  1.00  0.00     0.045 A   
ATOM     26  C11 UNL     1      -0.810  -0.318   4.744  1.00  0.00     0.037 A   
ATOM     27  C13 UNL     1      -0.992  -2.500   3.755  1.00  0.00     0.109 A   
ATOM     28  C12 UNL     1      -0.924  -1.686   4.859  1.00  0.00     0.108 A   
ATOM     29  O1  UNL     1      -1.097  -3.814   4.085  1.00  0.00    -0.316 OA  
ATOM     30  O2  UNL     1      -0.980  -2.383   6.023  1.00  0.00    -0.316 OA  
ATOM     31  C15 UNL     1      -1.108  -3.734   5.529  1.00  0.00     0.337 C   
ENDBRANCH  22  23
ENDBRANCH  19  22
ENDBRANCH  18  19
BRANCH  18  32
ATOM     32  C16 UNL     1       2.425   0.489  -1.222  1.00  0.00     0.043 C   
ATOM     33  C17 UNL     1       2.785   1.149  -2.557  1.00  0.00     0.010 C   
ATOM     34  C20 UNL     1       3.242   1.318  -0.222  1.00  0.00     0.010 C   
ATOM     35  C18 UNL     1       4.281   1.399  -2.435  1.00  0.00     0.001 C   
ATOM     36  C19 UNL     1       4.511   1.734  -0.965  1.00  0.00     0.001 C   
ENDBRANCH  18  32
ENDBRANCH   3  18
TORSDOF 7
