REMARK SMILES CC(C)C[C@H]([NH2+]Cc1ccc2c(c1)OCO2)c1cn(Cc2ncc[nH]2)nn1
REMARK SMILES IDX 17 1 18 2 19 3 26 4 27 5 5 7 4 8 2 9 1 10 3 11 6 12 7 15
REMARK SMILES IDX 8 16 9 17 13 18 10 19 12 20 11 21 14 22 16 23 15 24 20 25
REMARK SMILES IDX 21 26 22 27 25 28 23 29 24 30
REMARK H PARENT 18 6 6 13 6 14 25 31
ROOT
ATOM     1   C14 UNL     1      -0.701  -0.293   1.587  1.00  0.00     0.127 A   
ATOM     2   C15 UNL     1      -1.675  -0.793   0.753  1.00  0.00     0.046 A   
ATOM     3   N2  UNL     1      -2.830  -0.655   1.476  1.00  0.00    -0.205 N   
ATOM     4   N5  UNL     1      -2.570  -0.176   2.711  1.00  0.00    -0.076 NA  
ATOM     5   N6  UNL     1      -1.267   0.054   2.789  1.00  0.00    -0.132 NA  
ATOM     6   H20 UNL     1      -1.675  -1.136  -0.274  1.00  0.00     0.083 HD  
ENDROOT
BRANCH   1   7
ATOM     7   C5  UNL     1       0.733   0.014   1.324  1.00  0.00     0.114 C   
BRANCH   7   8
ATOM     8   C4  UNL     1       1.694  -0.961   2.030  1.00  0.00     0.064 C   
BRANCH   8   9
ATOM     9   C2  UNL     1       1.599  -2.430   1.560  1.00  0.00    -0.012 C   
ATOM     10  C1  UNL     1       2.571  -3.294   2.370  1.00  0.00     0.007 C   
ATOM     11  C3  UNL     1       1.895  -2.587   0.066  1.00  0.00     0.007 C   
ENDBRANCH   8   9
ENDBRANCH   7   8
BRANCH   7  12
ATOM     12  N1  UNL     1       1.065   1.407   1.831  1.00  0.00     0.249 N   
ATOM     13  H11 UNL     1       2.074   1.571   1.766  1.00  0.00     0.199 HD  
ATOM     14  H12 UNL     1       0.809   1.420   2.829  1.00  0.00     0.199 HD  
BRANCH  12  15
ATOM     15  C6  UNL     1       0.334   2.539   1.177  1.00  0.00     0.164 C   
BRANCH  15  16
ATOM     16  C7  UNL     1       0.550   2.613  -0.309  1.00  0.00    -0.002 A   
ATOM     17  C8  UNL     1      -0.513   2.312  -1.194  1.00  0.00     0.012 A   
ATOM     18  C12 UNL     1       1.812   2.940  -0.834  1.00  0.00     0.045 A   
ATOM     19  C9  UNL     1      -0.325   2.329  -2.580  1.00  0.00     0.037 A   
ATOM     20  C11 UNL     1       1.966   2.944  -2.207  1.00  0.00     0.109 A   
ATOM     21  C10 UNL     1       0.927   2.648  -3.056  1.00  0.00     0.108 A   
ATOM     22  O1  UNL     1       3.121   3.220  -2.874  1.00  0.00    -0.316 OA  
ATOM     23  O2  UNL     1       1.296   2.702  -4.364  1.00  0.00    -0.316 OA  
ATOM     24  C13 UNL     1       2.678   3.102  -4.247  1.00  0.00     0.337 C   
ENDBRANCH  15  16
ENDBRANCH  12  15
ENDBRANCH   7  12
ENDBRANCH   1   7
BRANCH   3  25
ATOM     25  C16 UNL     1      -4.192  -0.919   1.044  1.00  0.00     0.206 C   
BRANCH  25  26
ATOM     26  C17 UNL     1      -4.650   0.132   0.088  1.00  0.00     0.117 A   
ATOM     27  N3  UNL     1      -3.930   0.731  -0.845  1.00  0.00    -0.243 NA  
ATOM     28  N4  UNL     1      -5.961   0.562   0.041  1.00  0.00    -0.307 N   
ATOM     29  C18 UNL     1      -4.796   1.577  -1.495  1.00  0.00     0.128 A   
ATOM     30  C19 UNL     1      -6.058   1.493  -0.956  1.00  0.00     0.093 A   
ATOM     31  H25 UNL     1      -6.720   0.243   0.629  1.00  0.00     0.154 HD  
ENDBRANCH  25  26
ENDBRANCH   3  25
TORSDOF 8
