REMARK SMILES CC(C)[C@H]([NH2+]Cc1ccc2c(c1)OCO2)c1cn(CCc2ccc(N([O-])[O-])cc2)nn1
REMARK SMILES IDX 16 1 17 2 18 3 30 4 31 5 4 7 2 8 1 9 3 10 5 11 6 14 7 15
REMARK SMILES IDX 8 16 12 17 9 18 11 19 10 20 13 21 15 22 14 23 19 24 20 25
REMARK SMILES IDX 21 26 22 27 29 28 23 29 28 30 24 31 25 32 26 33 27 34
REMARK H PARENT 17 6 5 12 5 13
ROOT
ATOM     1   C13 UNL     1      -1.567   0.863   2.087  1.00  0.00     0.127 A   
ATOM     2   C14 UNL     1      -1.817  -0.231   2.887  1.00  0.00     0.045 A   
ATOM     3   N2  UNL     1      -2.915  -0.815   2.316  1.00  0.00    -0.212 N   
ATOM     4   N4  UNL     1      -3.333  -0.111   1.248  1.00  0.00    -0.076 NA  
ATOM     5   N5  UNL     1      -2.509   0.912   1.090  1.00  0.00    -0.132 NA  
ATOM     6   H18 UNL     1      -1.316  -0.654   3.746  1.00  0.00     0.083 HD  
ENDROOT
BRANCH   1   7
ATOM     7   C4  UNL     1      -0.445   1.853   2.097  1.00  0.00     0.117 C   
BRANCH   7   8
ATOM     8   C2  UNL     1      -0.775   3.186   2.815  1.00  0.00     0.037 C   
ATOM     9   C1  UNL     1      -1.025   2.971   4.312  1.00  0.00     0.014 C   
ATOM     10  C3  UNL     1      -1.946   3.962   2.201  1.00  0.00     0.014 C   
ENDBRANCH   7   8
BRANCH   7  11
ATOM     11  N1  UNL     1      -0.024   2.158   0.681  1.00  0.00     0.249 N   
ATOM     12  H9  UNL     1       0.504   3.034   0.620  1.00  0.00     0.199 HD  
ATOM     13  H10 UNL     1      -0.890   2.302   0.140  1.00  0.00     0.199 HD  
BRANCH  11  14
ATOM     14  C5  UNL     1       0.750   1.077   0.005  1.00  0.00     0.164 C   
BRANCH  14  15
ATOM     15  C6  UNL     1       0.896   1.371  -1.460  1.00  0.00    -0.002 A   
ATOM     16  C7  UNL     1      -0.163   1.069  -2.352  1.00  0.00     0.012 A   
ATOM     17  C11 UNL     1       2.061   1.985  -1.948  1.00  0.00     0.045 A   
ATOM     18  C8  UNL     1      -0.060   1.367  -3.714  1.00  0.00     0.037 A   
ATOM     19  C10 UNL     1       2.129   2.266  -3.296  1.00  0.00     0.109 A   
ATOM     20  C9  UNL     1       1.100   1.966  -4.155  1.00  0.00     0.108 A   
ATOM     21  O1  UNL     1       3.175   2.859  -3.928  1.00  0.00    -0.316 OA  
ATOM     22  O2  UNL     1       1.371   2.328  -5.436  1.00  0.00    -0.316 OA  
ATOM     23  C12 UNL     1       2.704   2.865  -5.295  1.00  0.00     0.337 C   
ENDBRANCH  14  15
ENDBRANCH  11  14
ENDBRANCH   7  11
ENDBRANCH   1   7
BRANCH   3  24
ATOM     24  C15 UNL     1      -3.521  -2.089   2.655  1.00  0.00     0.139 C   
BRANCH  24  25
ATOM     25  C16 UNL     1      -3.319  -3.170   1.583  1.00  0.00     0.057 C   
BRANCH  25  26
ATOM     26  C17 UNL     1      -1.873  -3.304   1.153  1.00  0.00    -0.046 A   
ATOM     27  C18 UNL     1      -0.916  -3.864   2.015  1.00  0.00     0.006 A   
ATOM     28  C22 UNL     1      -1.470  -2.776  -0.085  1.00  0.00     0.006 A   
ATOM     29  C19 UNL     1       0.438  -3.832   1.678  1.00  0.00     0.031 A   
ATOM     30  C21 UNL     1      -0.122  -2.740  -0.432  1.00  0.00     0.031 A   
ATOM     31  C20 UNL     1       0.821  -3.242   0.470  1.00  0.00     0.118 A   
BRANCH  31  32
ATOM     32  N3  UNL     1       2.233  -3.024   0.199  1.00  0.00     0.092 N   
ATOM     33  O3  UNL     1       2.539  -1.906  -0.249  1.00  0.00    -0.138 OA  
ATOM     34  O4  UNL     1       3.024  -3.929   0.486  1.00  0.00    -0.138 OA  
ENDBRANCH  31  32
ENDBRANCH  25  26
ENDBRANCH  24  25
ENDBRANCH   3  24
TORSDOF 9
