REMARK SMILES CCc1ccc([C@@H](CO)n2cc([C@@H]([NH2+]Cc3ccc4c(c3)OCO4)C3CCCC3)nn2)cc1
REMARK SMILES IDX 10 1 11 2 12 3 30 4 31 5 7 7 6 8 3 9 4 10 33 11 5 12 32 13
REMARK SMILES IDX 2 14 1 15 8 16 9 17 13 19 14 20 15 23 16 24 17 25 21 26
REMARK SMILES IDX 18 27 20 28 19 29 22 30 24 31 23 32 25 33 26 34 29 35 27 36
REMARK SMILES IDX 28 37
REMARK H PARENT 11 6 9 18 14 21 14 22
ROOT
ATOM     1   N1  UNL     1       1.597  -2.282  -1.229  1.00  0.00    -0.202 N   
ATOM     2   C9  UNL     1       0.724  -1.251  -1.001  1.00  0.00     0.046 A   
ATOM     3   C10 UNL     1       1.527  -0.202  -0.620  1.00  0.00     0.127 A   
ATOM     4   N3  UNL     1       2.829  -0.632  -0.575  1.00  0.00    -0.132 NA  
ATOM     5   N4  UNL     1       2.859  -1.905  -0.934  1.00  0.00    -0.075 NA  
ATOM     6   H12 UNL     1      -0.342  -1.363  -1.143  1.00  0.00     0.083 HD  
ENDROOT
BRANCH   1   7
ATOM     7   C7  UNL     1       1.323  -3.639  -1.703  1.00  0.00     0.155 C   
BRANCH   7   8
ATOM     8   C6  UNL     1       0.194  -4.277  -0.901  1.00  0.00    -0.023 A   
ATOM     9   C3  UNL     1      -1.838  -5.451   0.683  1.00  0.00    -0.048 A   
ATOM     10  C4  UNL     1      -2.114  -4.998  -0.610  1.00  0.00     0.004 A   
ATOM     11  C26 UNL     1      -0.543  -5.304   1.188  1.00  0.00     0.004 A   
ATOM     12  C5  UNL     1      -1.111  -4.418  -1.394  1.00  0.00     0.006 A   
ATOM     13  C25 UNL     1       0.461  -4.727   0.405  1.00  0.00     0.006 A   
BRANCH   9  14
ATOM     14  C2  UNL     1      -2.927  -6.065   1.526  1.00  0.00     0.032 C   
ATOM     15  C1  UNL     1      -3.587  -5.036   2.433  1.00  0.00     0.009 C   
ENDBRANCH   9  14
ENDBRANCH   7   8
BRANCH   7  16
ATOM     16  C8  UNL     1       1.210  -3.670  -3.241  1.00  0.00     0.185 C   
BRANCH  16  17
ATOM     17  O1  UNL     1       0.211  -2.782  -3.747  1.00  0.00    -0.394 OA  
ATOM     18  H11 UNL     1       0.223  -2.875  -4.720  1.00  0.00     0.210 HD  
ENDBRANCH  16  17
ENDBRANCH   7  16
ENDBRANCH   1   7
BRANCH   3  19
ATOM     19  C11 UNL     1       1.205   1.203  -0.218  1.00  0.00     0.117 C   
BRANCH  19  20
ATOM     20  N2  UNL     1       2.388   1.784   0.533  1.00  0.00     0.249 N   
ATOM     21  H14 UNL     1       3.225   1.406   0.066  1.00  0.00     0.199 HD  
ATOM     22  H15 UNL     1       2.427   2.802   0.435  1.00  0.00     0.199 HD  
BRANCH  20  23
ATOM     23  C12 UNL     1       2.480   1.415   1.976  1.00  0.00     0.164 C   
BRANCH  23  24
ATOM     24  C13 UNL     1       1.596   2.276   2.836  1.00  0.00    -0.002 A   
ATOM     25  C14 UNL     1       0.447   1.732   3.457  1.00  0.00     0.012 A   
ATOM     26  C18 UNL     1       1.899   3.638   3.018  1.00  0.00     0.045 A   
ATOM     27  C15 UNL     1      -0.387   2.528   4.250  1.00  0.00     0.037 A   
ATOM     28  C17 UNL     1       1.052   4.396   3.800  1.00  0.00     0.109 A   
ATOM     29  C16 UNL     1      -0.057   3.857   4.402  1.00  0.00     0.108 A   
ATOM     30  O2  UNL     1       1.197   5.720   4.067  1.00  0.00    -0.316 OA  
ATOM     31  O3  UNL     1      -0.744   4.772   5.134  1.00  0.00    -0.316 OA  
ATOM     32  C19 UNL     1       0.068   5.949   4.941  1.00  0.00     0.337 C   
ENDBRANCH  23  24
ENDBRANCH  20  23
ENDBRANCH  19  20
BRANCH  19  33
ATOM     33  C20 UNL     1       0.882   2.160  -1.381  1.00  0.00     0.043 C   
ATOM     34  C21 UNL     1       1.966   2.322  -2.452  1.00  0.00     0.010 C   
ATOM     35  C24 UNL     1      -0.352   1.799  -2.206  1.00  0.00     0.010 C   
ATOM     36  C22 UNL     1       1.239   2.880  -3.678  1.00  0.00     0.001 C   
ATOM     37  C23 UNL     1      -0.256   2.750  -3.391  1.00  0.00     0.001 C   
ENDBRANCH  19  33
ENDBRANCH   3  19
TORSDOF 10
