REMARK SMILES CCc1ccc([C@H](CO)n2cc([C@@H]([NH2+]Cc3ccc4c(c3)OCO4)C3CCCC3)nn2)cc1
REMARK SMILES IDX 10 1 11 2 12 3 30 4 31 5 7 7 6 8 3 9 4 10 33 11 5 12 32 13
REMARK SMILES IDX 2 14 1 15 8 16 9 17 13 19 14 20 15 23 16 24 17 25 21 26
REMARK SMILES IDX 18 27 20 28 19 29 22 30 24 31 23 32 25 33 26 34 29 35 27 36
REMARK SMILES IDX 28 37
REMARK H PARENT 11 6 9 18 14 21 14 22
ROOT
ATOM     1   N1  UNL     1      -1.801  -0.460   0.465  1.00  0.00    -0.202 N   
ATOM     2   C9  UNL     1      -0.523  -0.944   0.577  1.00  0.00     0.046 A   
ATOM     3   C10 UNL     1      -0.003  -0.264   1.655  1.00  0.00     0.127 A   
ATOM     4   N3  UNL     1      -0.947   0.602   2.145  1.00  0.00    -0.132 NA  
ATOM     5   N4  UNL     1      -2.042   0.470   1.417  1.00  0.00    -0.075 NA  
ATOM     6   H12 UNL     1      -0.129  -1.696  -0.090  1.00  0.00     0.083 HD  
ENDROOT
BRANCH   1   7
ATOM     7   C7  UNL     1      -2.814  -0.832  -0.525  1.00  0.00     0.155 C   
BRANCH   7   8
ATOM     8   C6  UNL     1      -3.122   0.342  -1.442  1.00  0.00    -0.023 A   
ATOM     9   C3  UNL     1      -3.636   2.516  -3.175  1.00  0.00    -0.048 A   
ATOM     10  C4  UNL     1      -4.205   2.476  -1.897  1.00  0.00     0.004 A   
ATOM     11  C26 UNL     1      -2.804   1.467  -3.579  1.00  0.00     0.004 A   
ATOM     12  C5  UNL     1      -3.953   1.401  -1.041  1.00  0.00     0.006 A   
ATOM     13  C25 UNL     1      -2.549   0.393  -2.723  1.00  0.00     0.006 A   
BRANCH   9  14
ATOM     14  C2  UNL     1      -3.888   3.688  -4.090  1.00  0.00     0.032 C   
ATOM     15  C1  UNL     1      -2.790   4.734  -3.978  1.00  0.00     0.009 C   
ENDBRANCH   9  14
ENDBRANCH   7   8
BRANCH   7  16
ATOM     16  C8  UNL     1      -4.056  -1.447   0.143  1.00  0.00     0.185 C   
BRANCH  16  17
ATOM     17  O1  UNL     1      -3.751  -2.759   0.629  1.00  0.00    -0.394 OA  
ATOM     18  H11 UNL     1      -4.577  -3.125   0.997  1.00  0.00     0.210 HD  
ENDBRANCH  16  17
ENDBRANCH   7  16
ENDBRANCH   1   7
BRANCH   3  19
ATOM     19  C11 UNL     1       1.357  -0.270   2.269  1.00  0.00     0.117 C   
BRANCH  19  20
ATOM     20  N2  UNL     1       1.790   1.171   2.472  1.00  0.00     0.249 N   
ATOM     21  H14 UNL     1       2.203   1.306   3.400  1.00  0.00     0.199 HD  
ATOM     22  H15 UNL     1       0.918   1.724   2.487  1.00  0.00     0.199 HD  
BRANCH  20  23
ATOM     23  C12 UNL     1       2.699   1.745   1.442  1.00  0.00     0.164 C   
BRANCH  23  24
ATOM     24  C13 UNL     1       2.148   1.720   0.043  1.00  0.00    -0.002 A   
ATOM     25  C14 UNL     1       1.011   2.491  -0.301  1.00  0.00     0.012 A   
ATOM     26  C18 UNL     1       2.753   0.912  -0.935  1.00  0.00     0.045 A   
ATOM     27  C15 UNL     1       0.474   2.446  -1.592  1.00  0.00     0.037 A   
ATOM     28  C17 UNL     1       2.202   0.893  -2.199  1.00  0.00     0.109 A   
ATOM     29  C16 UNL     1       1.093   1.637  -2.520  1.00  0.00     0.108 A   
ATOM     30  O2  UNL     1       2.660   0.163  -3.252  1.00  0.00    -0.316 OA  
ATOM     31  O3  UNL     1       0.713   1.466  -3.813  1.00  0.00    -0.316 OA  
ATOM     32  C19 UNL     1       1.744   0.577  -4.290  1.00  0.00     0.337 C   
ENDBRANCH  23  24
ENDBRANCH  20  23
ENDBRANCH  19  20
BRANCH  19  33
ATOM     33  C20 UNL     1       1.378  -0.982   3.634  1.00  0.00     0.043 C   
ATOM     34  C21 UNL     1       0.927  -2.445   3.576  1.00  0.00     0.010 C   
ATOM     35  C24 UNL     1       2.779  -1.112   4.242  1.00  0.00     0.010 C   
ATOM     36  C22 UNL     1       1.393  -3.012   4.910  1.00  0.00     0.001 C   
ATOM     37  C23 UNL     1       2.685  -2.269   5.238  1.00  0.00     0.001 C   
ENDBRANCH  19  33
ENDBRANCH   3  19
TORSDOF 10
