REMARK SMILES COC(=O)[C@H](CO)n1cc([C@H](CC(C)C)[NH2+]Cc2ccc3c(c2)OCO3)nn1
REMARK SMILES IDX 8 1 9 2 10 3 27 4 28 5 5 7 3 8 4 9 2 10 1 11 6 12 7 13 11 15
REMARK SMILES IDX 12 16 13 17 14 18 15 19 16 20 17 23 18 24 19 25 23 26 20 27
REMARK SMILES IDX 22 28 21 29 24 30 26 31 25 32
REMARK H PARENT 9 6 7 14 16 21 16 22
ROOT
ATOM     1   N1  UNL     1       1.910   2.359  -0.493  1.00  0.00    -0.197 N   
ATOM     2   C5  UNL     1       1.304   1.649  -1.497  1.00  0.00     0.046 A   
ATOM     3   C6  UNL     1       1.453   0.333  -1.123  1.00  0.00     0.127 A   
ATOM     4   N3  UNL     1       2.164   0.283   0.051  1.00  0.00    -0.132 NA  
ATOM     5   N4  UNL     1       2.438   1.522   0.425  1.00  0.00    -0.075 NA  
ATOM     6   H8  UNL     1       0.793   2.138  -2.318  1.00  0.00     0.083 HD  
ENDROOT
BRANCH   1   7
ATOM     7   C3  UNL     1       1.977   3.799  -0.288  1.00  0.00     0.221 C   
BRANCH   7   8
ATOM     8   C2  UNL     1       0.601   4.372  -0.041  1.00  0.00     0.286 C   
ATOM     9   O2  UNL     1      -0.451   3.745  -0.093  1.00  0.00    -0.264 OA  
BRANCH   8  10
ATOM     10  O1  UNL     1       0.699   5.687   0.312  1.00  0.00    -0.318 OA  
ATOM     11  C1  UNL     1      -0.553   6.313   0.617  1.00  0.00     0.206 C   
ENDBRANCH   8  10
ENDBRANCH   7   8
BRANCH   7  12
ATOM     12  C4  UNL     1       2.711   4.521  -1.417  1.00  0.00     0.191 C   
BRANCH  12  13
ATOM     13  O3  UNL     1       2.000   4.445  -2.655  1.00  0.00    -0.394 OA  
ATOM     14  H7  UNL     1       2.489   4.989  -3.298  1.00  0.00     0.210 HD  
ENDBRANCH  12  13
ENDBRANCH   7  12
ENDBRANCH   1   7
BRANCH   3  15
ATOM     15  C7  UNL     1       0.910  -0.943  -1.683  1.00  0.00     0.114 C   
BRANCH  15  16
ATOM     16  C8  UNL     1      -0.043  -0.767  -2.875  1.00  0.00     0.064 C   
BRANCH  16  17
ATOM     17  C9  UNL     1      -0.620  -2.066  -3.478  1.00  0.00    -0.012 C   
ATOM     18  C10 UNL     1      -1.562  -1.720  -4.635  1.00  0.00     0.007 C   
ATOM     19  C11 UNL     1       0.470  -3.020  -3.969  1.00  0.00     0.007 C   
ENDBRANCH  16  17
ENDBRANCH  15  16
BRANCH  15  20
ATOM     20  N2  UNL     1       0.267  -1.736  -0.578  1.00  0.00     0.249 N   
ATOM     21  H19 UNL     1       0.976  -1.776   0.170  1.00  0.00     0.199 HD  
ATOM     22  H20 UNL     1       0.108  -2.708  -0.855  1.00  0.00     0.199 HD  
BRANCH  20  23
ATOM     23  C12 UNL     1      -0.965  -1.169   0.048  1.00  0.00     0.164 C   
BRANCH  23  24
ATOM     24  C13 UNL     1      -1.250  -1.859   1.353  1.00  0.00    -0.002 A   
ATOM     25  C14 UNL     1      -0.627  -1.400   2.542  1.00  0.00     0.012 A   
ATOM     26  C18 UNL     1      -2.081  -2.992   1.395  1.00  0.00     0.045 A   
ATOM     27  C15 UNL     1      -0.841  -2.049   3.763  1.00  0.00     0.037 A   
ATOM     28  C17 UNL     1      -2.269  -3.608   2.616  1.00  0.00     0.109 A   
ATOM     29  C16 UNL     1      -1.669  -3.149   3.767  1.00  0.00     0.108 A   
ATOM     30  O4  UNL     1      -3.036  -4.708   2.834  1.00  0.00    -0.316 OA  
ATOM     31  O5  UNL     1      -1.993  -3.895   4.855  1.00  0.00    -0.316 OA  
ATOM     32  C19 UNL     1      -2.870  -4.877   4.264  1.00  0.00     0.337 C   
ENDBRANCH  23  24
ENDBRANCH  20  23
ENDBRANCH  15  20
ENDBRANCH   3  15
TORSDOF 11
