REMARK SMILES Cc1cc(-n2cc([C@@H]([NH2+]Cc3ccc4c(c3)OCO4)C3CCCC3)nn2)n(C)n1
REMARK SMILES IDX 8 1 7 2 5 3 6 4 26 5 25 6 4 7 2 8 3 9 29 10 27 11 1 12 28 13
REMARK SMILES IDX 9 14 10 17 11 18 12 19 16 20 13 21 15 22 14 23 17 24 19 25
REMARK SMILES IDX 18 26 20 27 21 28 24 29 22 30 23 31
REMARK H PARENT 9 15 9 16
ROOT
ATOM     1   C7  UNL     1      -1.460   1.046  -0.138  1.00  0.00     0.117 C   
ENDROOT
BRANCH   1   2
ATOM     2   C6  UNL     1      -0.011   0.911  -0.478  1.00  0.00     0.128 A   
ATOM     3   N1  UNL     1       1.999   0.234  -0.979  1.00  0.00    -0.165 N   
ATOM     4   C5  UNL     1       0.668  -0.033  -1.214  1.00  0.00     0.137 A   
ATOM     5   N4  UNL     1       2.106   1.347  -0.221  1.00  0.00    -0.070 NA  
ATOM     6   N3  UNL     1       0.891   1.760   0.103  1.00  0.00    -0.131 NA  
BRANCH   3   7
ATOM     7   C4  UNL     1       3.118  -0.492  -1.333  1.00  0.00     0.135 A   
ATOM     8   C2  UNL     1       4.520  -2.031  -2.088  1.00  0.00     0.059 A   
ATOM     9   C3  UNL     1       3.156  -1.668  -2.053  1.00  0.00     0.069 A   
ATOM     10  N6  UNL     1       5.279  -1.146  -1.435  1.00  0.00    -0.185 NA  
ATOM     11  N5  UNL     1       4.417  -0.202  -1.006  1.00  0.00    -0.213 N   
ATOM     12  C1  UNL     1       5.139  -3.218  -2.726  1.00  0.00     0.068 C   
ATOM     13  C21 UNL     1       4.956   0.921  -0.271  1.00  0.00     0.161 C   
ENDBRANCH   3   7
ENDBRANCH   1   2
BRANCH   1  14
ATOM     14  N2  UNL     1      -1.588   1.208   1.368  1.00  0.00     0.249 N   
ATOM     15  H7  UNL     1      -2.348   1.851   1.605  1.00  0.00     0.199 HD  
ATOM     16  H8  UNL     1      -0.724   1.679   1.679  1.00  0.00     0.199 HD  
BRANCH  14  17
ATOM     17  C8  UNL     1      -1.758  -0.044   2.167  1.00  0.00     0.164 C   
BRANCH  17  18
ATOM     18  C9  UNL     1      -0.661  -1.056   1.982  1.00  0.00    -0.002 A   
ATOM     19  C10 UNL     1      -0.921  -2.273   1.305  1.00  0.00     0.012 A   
ATOM     20  C14 UNL     1       0.644  -0.786   2.434  1.00  0.00     0.045 A   
ATOM     21  C11 UNL     1       0.104  -3.191   1.052  1.00  0.00     0.037 A   
ATOM     22  C13 UNL     1       1.634  -1.707   2.157  1.00  0.00     0.109 A   
ATOM     23  C12 UNL     1       1.373  -2.873   1.482  1.00  0.00     0.108 A   
ATOM     24  O1  UNL     1       2.948  -1.576   2.477  1.00  0.00    -0.316 OA  
ATOM     25  O2  UNL     1       2.488  -3.625   1.293  1.00  0.00    -0.316 OA  
ATOM     26  C15 UNL     1       3.487  -2.809   1.945  1.00  0.00     0.337 C   
ENDBRANCH  17  18
ENDBRANCH  14  17
ENDBRANCH   1  14
BRANCH   1  27
ATOM     27  C16 UNL     1      -2.106   2.265  -0.824  1.00  0.00     0.043 C   
ATOM     28  C17 UNL     1      -2.065   2.190  -2.354  1.00  0.00     0.010 C   
ATOM     29  C20 UNL     1      -3.608   2.418  -0.549  1.00  0.00     0.010 C   
ATOM     30  C18 UNL     1      -3.065   3.251  -2.782  1.00  0.00     0.001 C   
ATOM     31  C19 UNL     1      -4.176   3.191  -1.739  1.00  0.00     0.001 C   
ENDBRANCH   1  27
TORSDOF 6
