REMARK SMILES Cc1nccnc1CCn1cc([C@@H]([NH2+]Cc2ccc3c(c2)OCO3)C(C)C)nn1
REMARK SMILES IDX 10 1 11 2 12 3 28 4 29 5 9 7 8 8 7 9 2 10 3 11 4 12 6 13
REMARK SMILES IDX 5 14 1 15 13 16 14 17 15 20 16 21 17 22 21 23 18 24 20 25
REMARK SMILES IDX 19 26 22 27 24 28 23 29 25 30 26 31 27 32
REMARK H PARENT 11 6 14 18 14 19
ROOT
ATOM     1   N3  UNL     1       2.253   1.178  -2.096  1.00  0.00    -0.212 N   
ATOM     2   C8  UNL     1       1.693   0.041  -1.574  1.00  0.00     0.045 A   
ATOM     3   C9  UNL     1       0.355   0.354  -1.474  1.00  0.00     0.127 A   
ATOM     4   N5  UNL     1       0.136   1.574  -2.061  1.00  0.00    -0.132 NA  
ATOM     5   N6  UNL     1       1.300   2.051  -2.472  1.00  0.00    -0.076 NA  
ATOM     6   H10 UNL     1       2.297  -0.770  -1.189  1.00  0.00     0.083 HD  
ENDROOT
BRANCH   1   7
ATOM     7   C7  UNL     1       3.617   1.640  -1.897  1.00  0.00     0.140 C   
BRANCH   7   8
ATOM     8   C6  UNL     1       3.732   2.601  -0.699  1.00  0.00     0.079 C   
BRANCH   8   9
ATOM     9   C5  UNL     1       3.095   2.005   0.536  1.00  0.00     0.063 A   
ATOM     10  C2  UNL     1       1.857   2.430   1.044  1.00  0.00     0.059 A   
ATOM     11  N1  UNL     1       1.171   1.688   1.966  1.00  0.00    -0.258 NA  
ATOM     12  C3  UNL     1       1.851   0.636   2.490  1.00  0.00     0.131 A   
ATOM     13  N2  UNL     1       3.715   0.898   1.026  1.00  0.00    -0.258 NA  
ATOM     14  C4  UNL     1       3.099   0.256   2.040  1.00  0.00     0.131 A   
ATOM     15  C1  UNL     1       1.210   3.718   0.626  1.00  0.00     0.069 C   
ENDBRANCH   8   9
ENDBRANCH   7   8
ENDBRANCH   1   7
BRANCH   3  16
ATOM     16  C10 UNL     1      -0.747  -0.311  -0.708  1.00  0.00     0.117 C   
BRANCH  16  17
ATOM     17  N4  UNL     1      -1.279   0.710   0.272  1.00  0.00     0.249 N   
ATOM     18  H12 UNL     1      -0.480   1.019   0.860  1.00  0.00     0.199 HD  
ATOM     19  H13 UNL     1      -1.516   1.549  -0.275  1.00  0.00     0.199 HD  
BRANCH  17  20
ATOM     20  C11 UNL     1      -2.398   0.366   1.182  1.00  0.00     0.164 C   
BRANCH  20  21
ATOM     21  C12 UNL     1      -2.013  -0.574   2.289  1.00  0.00    -0.002 A   
ATOM     22  C13 UNL     1      -1.559  -0.058   3.527  1.00  0.00     0.012 A   
ATOM     23  C17 UNL     1      -2.081  -1.966   2.110  1.00  0.00     0.045 A   
ATOM     24  C14 UNL     1      -1.181  -0.910   4.571  1.00  0.00     0.037 A   
ATOM     25  C16 UNL     1      -1.692  -2.779   3.155  1.00  0.00     0.109 A   
ATOM     26  C15 UNL     1      -1.256  -2.267   4.351  1.00  0.00     0.108 A   
ATOM     27  O1  UNL     1      -1.685  -4.137   3.138  1.00  0.00    -0.316 OA  
ATOM     28  O2  UNL     1      -0.921  -3.237   5.240  1.00  0.00    -0.316 OA  
ATOM     29  C18 UNL     1      -1.229  -4.426   4.480  1.00  0.00     0.337 C   
ENDBRANCH  20  21
ENDBRANCH  17  20
ENDBRANCH  16  17
BRANCH  16  30
ATOM     30  C19 UNL     1      -1.862  -0.901  -1.611  1.00  0.00     0.037 C   
ATOM     31  C20 UNL     1      -2.646   0.129  -2.429  1.00  0.00     0.014 C   
ATOM     32  C21 UNL     1      -1.305  -1.986  -2.544  1.00  0.00     0.014 C   
ENDBRANCH  16  30
ENDBRANCH   3  16
TORSDOF 8
