REMARK SMILES Cc1cc(-n2cc([C@@H]([NH2+]Cc3ccc4c(c3)OCO4)C(C)(C)C)nn2)n(C)n1
REMARK SMILES IDX 8 1 7 2 5 3 6 4 25 5 24 6 4 7 2 8 3 9 28 10 26 11 1 12 27 13
REMARK SMILES IDX 9 14 10 17 11 18 12 19 16 20 13 21 15 22 14 23 17 24 19 25
REMARK SMILES IDX 18 26 20 27 21 28 22 29 23 30
REMARK H PARENT 9 15 9 16
ROOT
ATOM     1   C7  UNL     1       0.306  -1.412  -1.024  1.00  0.00     0.120 C   
ENDROOT
BRANCH   1   2
ATOM     2   C6  UNL     1      -0.587  -0.402  -0.368  1.00  0.00     0.128 A   
ATOM     3   N1  UNL     1      -1.444   1.286   0.716  1.00  0.00    -0.165 N   
ATOM     4   C5  UNL     1      -0.422   0.947  -0.144  1.00  0.00     0.137 A   
ATOM     5   N4  UNL     1      -2.236   0.210   0.916  1.00  0.00    -0.070 NA  
ATOM     6   N3  UNL     1      -1.715  -0.826   0.281  1.00  0.00    -0.131 NA  
BRANCH   3   7
ATOM     7   C4  UNL     1      -1.669   2.467   1.392  1.00  0.00     0.135 A   
ATOM     8   C2  UNL     1      -1.526   4.505   2.247  1.00  0.00     0.059 A   
ATOM     9   C3  UNL     1      -0.916   3.621   1.330  1.00  0.00     0.069 A   
ATOM     10  N6  UNL     1      -2.582   3.942   2.841  1.00  0.00    -0.185 NA  
ATOM     11  N5  UNL     1      -2.675   2.714   2.290  1.00  0.00    -0.213 N   
ATOM     12  C1  UNL     1      -1.125   5.891   2.594  1.00  0.00     0.068 C   
ATOM     13  C20 UNL     1      -3.757   1.860   2.724  1.00  0.00     0.161 C   
ENDBRANCH   3   7
ENDBRANCH   1   2
BRANCH   1  14
ATOM     14  N2  UNL     1       0.426  -2.606  -0.088  1.00  0.00     0.250 N   
ATOM     15  H7  UNL     1       0.449  -3.487  -0.607  1.00  0.00     0.199 HD  
ATOM     16  H8  UNL     1      -0.454  -2.632   0.452  1.00  0.00     0.199 HD  
BRANCH  14  17
ATOM     17  C8  UNL     1       1.567  -2.592   0.878  1.00  0.00     0.164 C   
BRANCH  17  18
ATOM     18  C9  UNL     1       1.606  -1.388   1.779  1.00  0.00    -0.002 A   
ATOM     19  C10 UNL     1       2.616  -0.409   1.615  1.00  0.00     0.012 A   
ATOM     20  C14 UNL     1       0.613  -1.195   2.756  1.00  0.00     0.045 A   
ATOM     21  C11 UNL     1       2.620   0.759   2.386  1.00  0.00     0.037 A   
ATOM     22  C13 UNL     1       0.638  -0.026   3.490  1.00  0.00     0.109 A   
ATOM     23  C12 UNL     1       1.610   0.925   3.308  1.00  0.00     0.108 A   
ATOM     24  O1  UNL     1      -0.273   0.337   4.430  1.00  0.00    -0.316 OA  
ATOM     25  O2  UNL     1       1.438   2.006   4.112  1.00  0.00    -0.316 OA  
ATOM     26  C15 UNL     1       0.250   1.622   4.840  1.00  0.00     0.337 C   
ENDBRANCH  17  18
ENDBRANCH  14  17
ENDBRANCH   1  14
BRANCH   1  27
ATOM     27  C16 UNL     1      -0.166  -1.865  -2.448  1.00  0.00     0.010 C   
ATOM     28  C17 UNL     1      -0.315  -0.633  -3.369  1.00  0.00     0.017 C   
ATOM     29  C18 UNL     1       0.898  -2.784  -3.092  1.00  0.00     0.017 C   
ATOM     30  C19 UNL     1      -1.511  -2.619  -2.427  1.00  0.00     0.017 C   
ENDBRANCH   1  27
TORSDOF 6
