REMARK SMILES COc1ccc(N)cc1-n1cc([C@@H]([NH2+]Cc2ccc3c(c2)OCO3)C2CCCCC2)nn1
REMARK SMILES IDX 10 1 11 2 12 3 31 4 32 5 9 6 3 7 4 8 5 9 8 10 6 11 2 12 1 13
REMARK SMILES IDX 7 14 13 17 14 18 15 21 16 22 17 23 21 24 18 25 20 26 19 27
REMARK SMILES IDX 22 28 24 29 23 30 25 31 26 32 30 33 27 34 29 35 28 36
REMARK H PARENT 7 15 7 16 14 19 14 20
ROOT
ATOM     1   N2  UNL     1       1.820  -2.449  -0.404  1.00  0.00    -0.178 N   
ATOM     2   C8  UNL     1       1.384  -1.150  -0.598  1.00  0.00     0.135 A   
ATOM     3   C9  UNL     1       0.631  -0.840   0.512  1.00  0.00     0.127 A   
ATOM     4   N4  UNL     1       0.587  -1.922   1.337  1.00  0.00    -0.131 NA  
ATOM     5   N5  UNL     1       1.296  -2.888   0.779  1.00  0.00    -0.071 NA  
ENDROOT
BRANCH   1   6
ATOM     6   C7  UNL     1       2.633  -3.300  -1.206  1.00  0.00     0.090 A   
ATOM     7   C2  UNL     1       3.149  -2.925  -2.462  1.00  0.00     0.098 A   
ATOM     8   C3  UNL     1       3.949  -3.842  -3.159  1.00  0.00     0.037 A   
ATOM     9   C4  UNL     1       4.238  -5.103  -2.625  1.00  0.00     0.026 A   
ATOM     10  C6  UNL     1       2.939  -4.580  -0.686  1.00  0.00     0.051 A   
ATOM     11  C5  UNL     1       3.701  -5.502  -1.406  1.00  0.00     0.025 A   
BRANCH   7  12
ATOM     12  O1  UNL     1       2.840  -1.692  -2.964  1.00  0.00    -0.347 OA  
ATOM     13  C1  UNL     1       3.591  -1.221  -4.080  1.00  0.00     0.203 C   
ENDBRANCH   7  12
BRANCH  11  14
ATOM     14  N1  UNL     1       4.103  -6.701  -0.816  1.00  0.00    -0.358 N   
ATOM     15  H6  UNL     1       4.387  -7.424  -1.472  1.00  0.00     0.143 HD  
ATOM     16  H7  UNL     1       3.488  -7.057  -0.091  1.00  0.00     0.143 HD  
ENDBRANCH  11  14
ENDBRANCH   1   6
BRANCH   3  17
ATOM     17  C10 UNL     1      -0.143   0.389   0.874  1.00  0.00     0.117 C   
BRANCH  17  18
ATOM     18  N3  UNL     1      -1.463  -0.060   1.475  1.00  0.00     0.249 N   
ATOM     19  H11 UNL     1      -1.231  -0.835   2.114  1.00  0.00     0.199 HD  
ATOM     20  H12 UNL     1      -1.889   0.670   2.048  1.00  0.00     0.199 HD  
BRANCH  18  21
ATOM     21  C11 UNL     1      -2.486  -0.557   0.510  1.00  0.00     0.164 C   
BRANCH  21  22
ATOM     22  C12 UNL     1      -3.149   0.567  -0.240  1.00  0.00    -0.002 A   
ATOM     23  C13 UNL     1      -4.124   1.369   0.398  1.00  0.00     0.012 A   
ATOM     24  C17 UNL     1      -2.774   0.856  -1.564  1.00  0.00     0.045 A   
ATOM     25  C14 UNL     1      -4.716   2.448  -0.268  1.00  0.00     0.037 A   
ATOM     26  C16 UNL     1      -3.374   1.929  -2.191  1.00  0.00     0.109 A   
ATOM     27  C15 UNL     1      -4.316   2.703  -1.561  1.00  0.00     0.108 A   
ATOM     28  O2  UNL     1      -3.119   2.350  -3.458  1.00  0.00    -0.316 OA  
ATOM     29  O3  UNL     1      -4.774   3.707  -2.351  1.00  0.00    -0.316 OA  
ATOM     30  C18 UNL     1      -4.040   3.459  -3.570  1.00  0.00     0.337 C   
ENDBRANCH  21  22
ENDBRANCH  18  21
ENDBRANCH  17  18
BRANCH  17  31
ATOM     31  C19 UNL     1       0.603   1.304   1.890  1.00  0.00     0.043 C   
ATOM     32  C20 UNL     1      -0.195   2.590   2.204  1.00  0.00     0.010 C   
ATOM     33  C24 UNL     1       2.007   1.692   1.367  1.00  0.00     0.010 C   
ATOM     34  C21 UNL     1       0.558   3.537   3.137  1.00  0.00     0.001 C   
ATOM     35  C23 UNL     1       2.746   2.642   2.305  1.00  0.00     0.001 C   
ATOM     36  C22 UNL     1       1.932   3.895   2.590  1.00  0.00     0.000 C   
ENDBRANCH  17  31
ENDBRANCH   3  17
TORSDOF 8
