REMARK SMILES CC(C)C[C@H]([NH2+]Cc1ccc2c(c1)OCO2)c1cn(Cc2nccn2C)nn1
REMARK SMILES IDX 17 1 18 2 19 3 27 4 28 5 5 7 4 8 2 9 1 10 3 11 6 12 7 15
REMARK SMILES IDX 8 16 9 17 13 18 10 19 12 20 11 21 14 22 16 23 15 24 20 25
REMARK SMILES IDX 21 26 22 27 25 28 23 29 24 30 26 31
REMARK H PARENT 18 6 6 13 6 14
ROOT
ATOM     1   C14 UNL     1       1.357  -0.790   0.835  1.00  0.00     0.127 A   
ATOM     2   C15 UNL     1       1.484  -2.151   1.000  1.00  0.00     0.046 A   
ATOM     3   N2  UNL     1       0.288  -2.655   0.564  1.00  0.00    -0.205 N   
ATOM     4   N5  UNL     1      -0.532  -1.662   0.163  1.00  0.00    -0.076 NA  
ATOM     5   N6  UNL     1       0.111  -0.517   0.325  1.00  0.00    -0.132 NA  
ATOM     6   H20 UNL     1       2.284  -2.794   1.341  1.00  0.00     0.083 HD  
ENDROOT
BRANCH   1   7
ATOM     7   C5  UNL     1       2.331   0.317   1.069  1.00  0.00     0.114 C   
BRANCH   7   8
ATOM     8   C4  UNL     1       2.711   0.518   2.550  1.00  0.00     0.064 C   
BRANCH   8   9
ATOM     9   C2  UNL     1       1.701   1.225   3.483  1.00  0.00    -0.012 C   
ATOM     10  C1  UNL     1       2.353   1.450   4.853  1.00  0.00     0.007 C   
ATOM     11  C3  UNL     1       0.395   0.454   3.670  1.00  0.00     0.007 C   
ENDBRANCH   8   9
ENDBRANCH   7   8
BRANCH   7  12
ATOM     12  N1  UNL     1       1.849   1.621   0.500  1.00  0.00     0.249 N   
ATOM     13  H11 UNL     1       2.327   2.420   0.928  1.00  0.00     0.199 HD  
ATOM     14  H12 UNL     1       0.853   1.704   0.749  1.00  0.00     0.199 HD  
BRANCH  12  15
ATOM     15  C6  UNL     1       1.942   1.742  -0.983  1.00  0.00     0.164 C   
BRANCH  15  16
ATOM     16  C7  UNL     1       1.292   3.016  -1.442  1.00  0.00    -0.002 A   
ATOM     17  C8  UNL     1       2.065   4.175  -1.681  1.00  0.00     0.012 A   
ATOM     18  C12 UNL     1      -0.107   3.074  -1.581  1.00  0.00     0.045 A   
ATOM     19  C9  UNL     1       1.458   5.376  -2.065  1.00  0.00     0.037 A   
ATOM     20  C11 UNL     1      -0.673   4.274  -1.957  1.00  0.00     0.109 A   
ATOM     21  C10 UNL     1       0.087   5.393  -2.194  1.00  0.00     0.108 A   
ATOM     22  O1  UNL     1      -2.002   4.503  -2.128  1.00  0.00    -0.316 OA  
ATOM     23  O2  UNL     1      -0.666   6.465  -2.550  1.00  0.00    -0.316 OA  
ATOM     24  C13 UNL     1      -1.991   5.891  -2.533  1.00  0.00     0.337 C   
ENDBRANCH  15  16
ENDBRANCH  12  15
ENDBRANCH   7  12
ENDBRANCH   1   7
BRANCH   3  25
ATOM     25  C16 UNL     1      -0.131  -4.043   0.497  1.00  0.00     0.206 C   
BRANCH  25  26
ATOM     26  C17 UNL     1       0.584  -4.726  -0.616  1.00  0.00     0.120 A   
ATOM     27  N3  UNL     1       1.814  -5.200  -0.549  1.00  0.00    -0.243 NA  
ATOM     28  N4  UNL     1       0.056  -4.938  -1.870  1.00  0.00    -0.296 N   
ATOM     29  C18 UNL     1       2.076  -5.748  -1.777  1.00  0.00     0.128 A   
ATOM     30  C19 UNL     1       1.000  -5.589  -2.615  1.00  0.00     0.096 A   
ATOM     31  C20 UNL     1      -1.248  -4.537  -2.344  1.00  0.00     0.137 C   
ENDBRANCH  25  26
ENDBRANCH   3  25
TORSDOF 8
