REMARK SMILES CN(C)Cc1cccc(Cn2cc([C@@H]([NH2+]Cc3ccc4c(c3)OCO4)C(C)(C)C)nn2)c1
REMARK SMILES IDX 11 1 12 2 13 3 30 4 31 5 10 7 9 8 5 9 6 10 32 11 7 12 8 13
REMARK SMILES IDX 4 14 2 15 1 16 3 17 14 18 15 19 16 22 17 23 18 24 22 25
REMARK SMILES IDX 19 26 21 27 20 28 23 29 25 30 24 31 26 32 27 33 28 34 29 35
REMARK H PARENT 12 6 15 20 15 21
ROOT
ATOM     1   N2  UNL     1       1.574  -0.260   3.267  1.00  0.00    -0.208 N   
ATOM     2   C10 UNL     1       0.875   0.774   2.701  1.00  0.00     0.046 A   
ATOM     3   C11 UNL     1       1.173   0.675   1.361  1.00  0.00     0.127 A   
ATOM     4   N4  UNL     1       2.126  -0.298   1.184  1.00  0.00    -0.132 NA  
ATOM     5   N5  UNL     1       2.385  -0.840   2.361  1.00  0.00    -0.076 NA  
ATOM     6   H14 UNL     1       0.185   1.382   3.270  1.00  0.00     0.083 HD  
ENDROOT
BRANCH   1   7
ATOM     7   C9  UNL     1       1.434  -0.810   4.607  1.00  0.00     0.169 C   
BRANCH   7   8
ATOM     8   C8  UNL     1       0.033  -1.329   4.829  1.00  0.00    -0.028 A   
ATOM     9   C4  UNL     1      -1.840  -2.733   4.117  1.00  0.00    -0.034 A   
ATOM     10  C5  UNL     1      -2.591  -2.256   5.197  1.00  0.00     0.005 A   
ATOM     11  C25 UNL     1      -0.525  -2.273   3.951  1.00  0.00     0.010 A   
ATOM     12  C6  UNL     1      -2.040  -1.336   6.090  1.00  0.00     0.001 A   
ATOM     13  C7  UNL     1      -0.735  -0.874   5.909  1.00  0.00     0.005 A   
BRANCH   9  14
ATOM     14  C3  UNL     1      -2.426  -3.723   3.131  1.00  0.00     0.119 C   
BRANCH  14  15
ATOM     15  N1  UNL     1      -2.630  -3.140   1.788  1.00  0.00    -0.305 NA  
ATOM     16  C1  UNL     1      -3.771  -2.219   1.785  1.00  0.00     0.105 C   
ATOM     17  C2  UNL     1      -2.873  -4.218   0.822  1.00  0.00     0.105 C   
ENDBRANCH  14  15
ENDBRANCH   9  14
ENDBRANCH   7   8
ENDBRANCH   1   7
BRANCH   3  18
ATOM     18  C12 UNL     1       0.659   1.425   0.169  1.00  0.00     0.120 C   
BRANCH  18  19
ATOM     19  N3  UNL     1       1.717   1.395  -0.910  1.00  0.00     0.250 N   
ATOM     20  H16 UNL     1       1.336   1.564  -1.843  1.00  0.00     0.199 HD  
ATOM     21  H17 UNL     1       2.089   0.432  -0.924  1.00  0.00     0.199 HD  
BRANCH  19  22
ATOM     22  C13 UNL     1       2.876   2.304  -0.694  1.00  0.00     0.164 C   
BRANCH  22  23
ATOM     23  C14 UNL     1       3.893   2.115  -1.784  1.00  0.00    -0.002 A   
ATOM     24  C15 UNL     1       4.948   1.186  -1.619  1.00  0.00     0.012 A   
ATOM     25  C19 UNL     1       3.760   2.804  -3.002  1.00  0.00     0.045 A   
ATOM     26  C16 UNL     1       5.869   0.956  -2.646  1.00  0.00     0.037 A   
ATOM     27  C18 UNL     1       4.682   2.550  -3.995  1.00  0.00     0.109 A   
ATOM     28  C17 UNL     1       5.709   1.654  -3.821  1.00  0.00     0.108 A   
ATOM     29  O1  UNL     1       4.688   3.115  -5.231  1.00  0.00    -0.316 OA  
ATOM     30  O2  UNL     1       6.495   1.548  -4.924  1.00  0.00    -0.316 OA  
ATOM     31  C20 UNL     1       5.852   2.486  -5.814  1.00  0.00     0.337 C   
ENDBRANCH  22  23
ENDBRANCH  19  22
ENDBRANCH  18  19
BRANCH  18  32
ATOM     32  C21 UNL     1      -0.704   0.880  -0.393  1.00  0.00     0.010 C   
ATOM     33  C22 UNL     1      -0.592  -0.566  -0.917  1.00  0.00     0.017 C   
ATOM     34  C23 UNL     1      -1.209   1.780  -1.546  1.00  0.00     0.017 C   
ATOM     35  C24 UNL     1      -1.793   0.913   0.704  1.00  0.00     0.017 C   
ENDBRANCH  18  32
ENDBRANCH   3  18
TORSDOF 9
