REMARK SMILES CC(C)[C@H]([NH2+]Cc1ccc2c(c1)OCO2)c1cn(Cc2ccc(CN)cc2)nn1
REMARK SMILES IDX 16 1 17 2 18 3 28 4 29 5 4 7 2 8 1 9 3 10 5 11 6 14 7 15
REMARK SMILES IDX 8 16 12 17 9 18 11 19 10 20 13 21 15 22 14 23 19 24 20 25
REMARK SMILES IDX 21 26 27 27 22 28 26 29 23 30 24 31 25 32
REMARK H PARENT 17 6 5 12 5 13 25 33 25 34
ROOT
ATOM     1   C13 UNL     1      -1.835   0.116  -0.672  1.00  0.00     0.127 A   
ATOM     2   C14 UNL     1      -1.316   1.385  -0.796  1.00  0.00     0.046 A   
ATOM     3   N2  UNL     1      -2.074   2.135   0.061  1.00  0.00    -0.208 N   
ATOM     4   N4  UNL     1      -3.045   1.387   0.623  1.00  0.00    -0.076 NA  
ATOM     5   N5  UNL     1      -2.910   0.149   0.177  1.00  0.00    -0.132 NA  
ATOM     6   H18 UNL     1      -0.466   1.792  -1.326  1.00  0.00     0.083 HD  
ENDROOT
BRANCH   1   7
ATOM     7   C4  UNL     1      -1.337  -1.188  -1.202  1.00  0.00     0.117 C   
BRANCH   7   8
ATOM     8   C2  UNL     1      -2.031  -1.595  -2.529  1.00  0.00     0.037 C   
ATOM     9   C1  UNL     1      -1.283  -2.736  -3.229  1.00  0.00     0.014 C   
ATOM     10  C3  UNL     1      -3.511  -1.968  -2.382  1.00  0.00     0.014 C   
ENDBRANCH   7   8
BRANCH   7  11
ATOM     11  N1  UNL     1      -1.485  -2.284  -0.170  1.00  0.00     0.249 N   
ATOM     12  H9  UNL     1      -2.483  -2.328   0.072  1.00  0.00     0.199 HD  
ATOM     13  H10 UNL     1      -1.222  -3.187  -0.570  1.00  0.00     0.199 HD  
BRANCH  11  14
ATOM     14  C5  UNL     1      -0.747  -2.089   1.119  1.00  0.00     0.164 C   
BRANCH  14  15
ATOM     15  C6  UNL     1       0.738  -1.929   0.953  1.00  0.00    -0.002 A   
ATOM     16  C7  UNL     1       1.355  -0.686   1.241  1.00  0.00     0.012 A   
ATOM     17  C11 UNL     1       1.525  -3.002   0.500  1.00  0.00     0.045 A   
ATOM     18  C8  UNL     1       2.733  -0.510   1.076  1.00  0.00     0.037 A   
ATOM     19  C10 UNL     1       2.880  -2.792   0.346  1.00  0.00     0.109 A   
ATOM     20  C9  UNL     1       3.468  -1.584   0.627  1.00  0.00     0.108 A   
ATOM     21  O1  UNL     1       3.775  -3.719  -0.084  1.00  0.00    -0.316 OA  
ATOM     22  O2  UNL     1       4.809  -1.598   0.412  1.00  0.00    -0.316 OA  
ATOM     23  C12 UNL     1       5.006  -2.962  -0.015  1.00  0.00     0.337 C   
ENDBRANCH  14  15
ENDBRANCH  11  14
ENDBRANCH   7  11
ENDBRANCH   1   7
BRANCH   3  24
ATOM     24  C15 UNL     1      -1.841   3.504   0.491  1.00  0.00     0.169 C   
BRANCH  24  25
ATOM     25  C16 UNL     1      -0.619   3.561   1.376  1.00  0.00    -0.029 A   
ATOM     26  C17 UNL     1       0.633   3.895   0.842  1.00  0.00     0.006 A   
ATOM     27  C22 UNL     1      -0.707   3.206   2.731  1.00  0.00     0.006 A   
ATOM     28  C18 UNL     1       1.775   3.860   1.644  1.00  0.00     0.005 A   
ATOM     29  C21 UNL     1       0.436   3.179   3.533  1.00  0.00     0.005 A   
ATOM     30  C19 UNL     1       1.688   3.508   2.997  1.00  0.00    -0.034 A   
BRANCH  30  31
ATOM     31  C20 UNL     1       2.932   3.448   3.846  1.00  0.00     0.113 C   
BRANCH  31  32
ATOM     32  N3  UNL     1       3.563   2.138   3.741  1.00  0.00    -0.327 NA  
ATOM     33  H25 UNL     1       2.961   1.448   4.185  1.00  0.00     0.119 HD  
ATOM     34  H26 UNL     1       4.424   2.147   4.288  1.00  0.00     0.119 HD  
ENDBRANCH  31  32
ENDBRANCH  30  31
ENDBRANCH  24  25
ENDBRANCH   3  24
TORSDOF 9
