REMARK SMILES CC(C)C[C@H]([NH2+]Cc1ccc2c(c1)OCO2)c1cn(Cc2cc[nH]n2)nn1
REMARK SMILES IDX 17 1 18 2 19 3 26 4 27 5 5 7 4 8 2 9 1 10 3 11 6 12 7 15
REMARK SMILES IDX 8 16 9 17 13 18 10 19 12 20 11 21 14 22 16 23 15 24 20 25
REMARK SMILES IDX 21 26 22 27 25 28 23 29 24 30
REMARK H PARENT 18 6 6 13 6 14 24 31
ROOT
ATOM     1   C14 UNL     1       0.697  -1.305  -0.234  1.00  0.00     0.127 A   
ATOM     2   C15 UNL     1       0.860  -0.426   0.811  1.00  0.00     0.046 A   
ATOM     3   N2  UNL     1       2.208  -0.441   1.048  1.00  0.00    -0.206 N   
ATOM     4   N5  UNL     1       2.824  -1.335   0.247  1.00  0.00    -0.076 NA  
ATOM     5   N6  UNL     1       1.906  -1.874  -0.540  1.00  0.00    -0.132 NA  
ATOM     6   H20 UNL     1       0.194   0.250   1.331  1.00  0.00     0.083 HD  
ENDROOT
BRANCH   1   7
ATOM     7   C5  UNL     1      -0.498  -1.589  -1.074  1.00  0.00     0.114 C   
BRANCH   7   8
ATOM     8   C4  UNL     1      -1.134  -2.958  -0.764  1.00  0.00     0.064 C   
BRANCH   8   9
ATOM     9   C2  UNL     1      -1.695  -3.110   0.667  1.00  0.00    -0.012 C   
ATOM     10  C1  UNL     1      -2.804  -2.102   0.969  1.00  0.00     0.007 C   
ATOM     11  C3  UNL     1      -2.225  -4.534   0.863  1.00  0.00     0.007 C   
ENDBRANCH   8   9
ENDBRANCH   7   8
BRANCH   7  12
ATOM     12  N1  UNL     1      -0.122  -1.604  -2.545  1.00  0.00     0.249 N   
ATOM     13  H11 UNL     1       0.575  -2.352  -2.658  1.00  0.00     0.199 HD  
ATOM     14  H12 UNL     1      -0.940  -1.857  -3.107  1.00  0.00     0.199 HD  
BRANCH  12  15
ATOM     15  C6  UNL     1       0.493  -0.356  -3.096  1.00  0.00     0.164 C   
BRANCH  15  16
ATOM     16  C7  UNL     1      -0.355   0.874  -2.928  1.00  0.00    -0.002 A   
ATOM     17  C8  UNL     1      -1.571   1.016  -3.638  1.00  0.00     0.012 A   
ATOM     18  C12 UNL     1       0.055   1.894  -2.049  1.00  0.00     0.045 A   
ATOM     19  C9  UNL     1      -2.372   2.151  -3.469  1.00  0.00     0.037 A   
ATOM     20  C11 UNL     1      -0.755   3.002  -1.909  1.00  0.00     0.109 A   
ATOM     21  C10 UNL     1      -1.937   3.124  -2.596  1.00  0.00     0.108 A   
ATOM     22  O1  UNL     1      -0.504   4.074  -1.111  1.00  0.00    -0.316 OA  
ATOM     23  O2  UNL     1      -2.583   4.284  -2.314  1.00  0.00    -0.316 OA  
ATOM     24  C13 UNL     1      -1.671   4.888  -1.375  1.00  0.00     0.337 C   
ENDBRANCH  15  16
ENDBRANCH  12  15
ENDBRANCH   7  12
ENDBRANCH   1   7
BRANCH   3  25
ATOM     25  C16 UNL     1       2.965   0.418   1.942  1.00  0.00     0.191 C   
BRANCH  25  26
ATOM     26  C17 UNL     1       3.072   1.785   1.351  1.00  0.00     0.079 A   
ATOM     27  C18 UNL     1       4.211   2.399   0.779  1.00  0.00     0.044 A   
ATOM     28  N4  UNL     1       2.003   2.596   1.302  1.00  0.00    -0.188 NA  
ATOM     29  C19 UNL     1       3.782   3.642   0.379  1.00  0.00     0.094 A   
ATOM     30  N3  UNL     1       2.465   3.718   0.721  1.00  0.00    -0.246 N   
ATOM     31  H25 UNL     1       1.822   4.493   0.579  1.00  0.00     0.175 HD  
ENDBRANCH  25  26
ENDBRANCH   3  25
TORSDOF 8
