REMARK SMILES CC(C)[C@H]([NH2+]Cc1ccc2c(c1)OCO2)c1cn(-c2cccc(O)c2)nn1
REMARK SMILES IDX 16 1 17 2 18 3 26 4 27 5 4 6 2 7 1 8 3 9 5 10 6 13 7 14 8 15
REMARK SMILES IDX 12 16 9 17 11 18 10 19 13 20 15 21 14 22 19 23 20 24 25 25
REMARK SMILES IDX 21 26 23 27 22 28 24 29
REMARK H PARENT 5 11 5 12 24 30
ROOT
ATOM     1   C13 UNL     1       0.187  -1.705   1.013  1.00  0.00     0.127 A   
ATOM     2   C14 UNL     1       0.108  -3.054   0.751  1.00  0.00     0.135 A   
ATOM     3   N2  UNL     1      -1.241  -3.314   0.598  1.00  0.00    -0.181 N   
ATOM     4   N3  UNL     1      -1.925  -2.147   0.726  1.00  0.00    -0.071 NA  
ATOM     5   N4  UNL     1      -1.071  -1.172   0.987  1.00  0.00    -0.131 NA  
ENDROOT
BRANCH   1   6
ATOM     6   C4  UNL     1       1.361  -0.808   1.249  1.00  0.00     0.117 C   
BRANCH   6   7
ATOM     7   C2  UNL     1       1.809  -0.722   2.731  1.00  0.00     0.037 C   
ATOM     8   C1  UNL     1       2.353  -2.062   3.238  1.00  0.00     0.014 C   
ATOM     9   C3  UNL     1       0.724  -0.210   3.686  1.00  0.00     0.014 C   
ENDBRANCH   6   7
BRANCH   6  10
ATOM     10  N1  UNL     1       1.047   0.588   0.768  1.00  0.00     0.249 N   
ATOM     11  H9  UNL     1       0.098   0.815   1.101  1.00  0.00     0.199 HD  
ATOM     12  H10 UNL     1       1.673   1.282   1.190  1.00  0.00     0.199 HD  
BRANCH  10  13
ATOM     13  C5  UNL     1       1.047   0.772  -0.710  1.00  0.00     0.164 C   
BRANCH  13  14
ATOM     14  C6  UNL     1       0.634   2.173  -1.062  1.00  0.00    -0.002 A   
ATOM     15  C7  UNL     1      -0.737   2.494  -1.204  1.00  0.00     0.012 A   
ATOM     16  C11 UNL     1       1.600   3.184  -1.193  1.00  0.00     0.045 A   
ATOM     17  C8  UNL     1      -1.143   3.803  -1.486  1.00  0.00     0.037 A   
ATOM     18  C10 UNL     1       1.166   4.464  -1.471  1.00  0.00     0.109 A   
ATOM     19  C9  UNL     1      -0.166   4.766  -1.613  1.00  0.00     0.108 A   
ATOM     20  O1  UNL     1       1.965   5.552  -1.628  1.00  0.00    -0.316 OA  
ATOM     21  O2  UNL     1      -0.374   6.081  -1.880  1.00  0.00    -0.316 OA  
ATOM     22  C12 UNL     1       0.982   6.575  -1.910  1.00  0.00     0.337 C   
ENDBRANCH  13  14
ENDBRANCH  10  13
ENDBRANCH   6  10
ENDBRANCH   1   6
BRANCH   3  23
ATOM     23  C15 UNL     1      -1.890  -4.543   0.331  1.00  0.00     0.060 A   
ATOM     24  C16 UNL     1      -3.289  -4.579   0.210  1.00  0.00     0.026 A   
ATOM     25  C20 UNL     1      -1.155  -5.726   0.185  1.00  0.00     0.059 A   
ATOM     26  C17 UNL     1      -3.940  -5.787  -0.053  1.00  0.00     0.005 A   
ATOM     27  C19 UNL     1      -1.821  -6.921  -0.079  1.00  0.00     0.073 A   
ATOM     28  C18 UNL     1      -3.206  -6.964  -0.199  1.00  0.00     0.033 A   
BRANCH  27  29
ATOM     29  O3  UNL     1      -1.060  -8.043  -0.214  1.00  0.00    -0.361 OA  
ATOM     30  H22 UNL     1      -1.644  -8.803  -0.383  1.00  0.00     0.218 HD  
ENDBRANCH  27  29
ENDBRANCH   3  23
TORSDOF 7
