REMARK SMILES CC(C)C[C@H]([NH2+]Cc1ccc2c(c1)OCO2)c1cn(-c2ccnc(CO)c2)nn1
REMARK SMILES IDX 17 1 18 2 19 3 28 4 29 5 5 6 4 7 2 8 1 9 3 10 6 11 7 14 8 15
REMARK SMILES IDX 9 16 13 17 10 18 12 19 11 20 14 21 16 22 15 23 20 24 21 25
REMARK SMILES IDX 27 26 22 27 24 28 23 29 25 30 26 31
REMARK H PARENT 6 12 6 13 26 32
ROOT
ATOM     1   C14 UNL     1       0.643   0.468  -0.746  1.00  0.00     0.127 A   
ATOM     2   C15 UNL     1       1.100  -0.084   0.431  1.00  0.00     0.135 A   
ATOM     3   N2  UNL     1       1.778   0.937   1.067  1.00  0.00    -0.180 N   
ATOM     4   N4  UNL     1       1.690   2.058   0.306  1.00  0.00    -0.071 NA  
ATOM     5   N5  UNL     1       1.015   1.780  -0.796  1.00  0.00    -0.131 NA  
ENDROOT
BRANCH   1   6
ATOM     6   C5  UNL     1      -0.172  -0.110  -1.856  1.00  0.00     0.114 C   
BRANCH   6   7
ATOM     7   C4  UNL     1       0.692  -0.546  -3.056  1.00  0.00     0.064 C   
BRANCH   7   8
ATOM     8   C2  UNL     1       1.696  -1.684  -2.768  1.00  0.00    -0.012 C   
ATOM     9   C1  UNL     1       2.528  -1.966  -4.022  1.00  0.00     0.007 C   
ATOM     10  C3  UNL     1       1.005  -2.969  -2.309  1.00  0.00     0.007 C   
ENDBRANCH   7   8
ENDBRANCH   6   7
BRANCH   6  11
ATOM     11  N1  UNL     1      -1.155   0.919  -2.382  1.00  0.00     0.249 N   
ATOM     12  H11 UNL     1      -0.605   1.756  -2.621  1.00  0.00     0.199 HD  
ATOM     13  H12 UNL     1      -1.584   0.580  -3.248  1.00  0.00     0.199 HD  
BRANCH  11  14
ATOM     14  C6  UNL     1      -2.237   1.353  -1.446  1.00  0.00     0.164 C   
BRANCH  14  15
ATOM     15  C7  UNL     1      -3.169   0.235  -1.068  1.00  0.00    -0.002 A   
ATOM     16  C8  UNL     1      -4.117  -0.255  -1.998  1.00  0.00     0.012 A   
ATOM     17  C12 UNL     1      -3.078  -0.355   0.205  1.00  0.00     0.045 A   
ATOM     18  C9  UNL     1      -4.959  -1.323  -1.668  1.00  0.00     0.037 A   
ATOM     19  C11 UNL     1      -3.921  -1.407   0.496  1.00  0.00     0.109 A   
ATOM     20  C10 UNL     1      -4.835  -1.878  -0.414  1.00  0.00     0.108 A   
ATOM     21  O1  UNL     1      -3.953  -2.094   1.668  1.00  0.00    -0.316 OA  
ATOM     22  O2  UNL     1      -5.561  -2.917   0.072  1.00  0.00    -0.316 OA  
ATOM     23  C13 UNL     1      -5.027  -3.027   1.409  1.00  0.00     0.337 C   
ENDBRANCH  14  15
ENDBRANCH  11  14
ENDBRANCH   6  11
ENDBRANCH   1   6
BRANCH   3  24
ATOM     24  C16 UNL     1       2.459   0.924   2.308  1.00  0.00     0.061 A   
ATOM     25  C17 UNL     1       2.531  -0.237   3.079  1.00  0.00     0.046 A   
ATOM     26  C21 UNL     1       3.071   2.096   2.770  1.00  0.00     0.052 A   
ATOM     27  C18 UNL     1       3.209  -0.175   4.285  1.00  0.00     0.113 A   
ATOM     28  C19 UNL     1       3.729   2.065   3.994  1.00  0.00     0.068 A   
ATOM     29  N3  UNL     1       3.802   0.941   4.755  1.00  0.00    -0.259 NA  
BRANCH  28  30
ATOM     30  C20 UNL     1       4.406   3.307   4.533  1.00  0.00     0.212 C   
BRANCH  30  31
ATOM     31  O3  UNL     1       4.952   3.074   5.829  1.00  0.00    -0.390 OA  
ATOM     32  H25 UNL     1       4.785   2.126   6.012  1.00  0.00     0.211 HD  
ENDBRANCH  30  31
ENDBRANCH  28  30
ENDBRANCH   3  24
TORSDOF 9
