REMARK SMILES O[C@@H](Cn1cc([C@@H]([NH2+]Cc2ccc3c(c2)OCO3)C2CCCC2)nn1)c1cccnc1
REMARK SMILES IDX 4 1 5 2 6 3 24 4 25 5 3 7 2 8 1 9 26 11 27 12 31 13 28 14
REMARK SMILES IDX 30 15 29 16 7 17 8 18 9 21 10 22 11 23 15 24 12 25 14 26
REMARK SMILES IDX 13 27 16 28 18 29 17 30 19 31 20 32 23 33 21 34 22 35
REMARK H PARENT 5 6 1 10 8 19 8 20
ROOT
ATOM     1   N1  UNL     1      -0.613  -1.279  -2.797  1.00  0.00    -0.209 N   
ATOM     2   C3  UNL     1      -0.718   0.065  -2.570  1.00  0.00     0.045 A   
ATOM     3   C4  UNL     1       0.360   0.349  -1.762  1.00  0.00     0.127 A   
ATOM     4   N3  UNL     1       1.115  -0.786  -1.608  1.00  0.00    -0.132 NA  
ATOM     5   N4  UNL     1       0.513  -1.772  -2.251  1.00  0.00    -0.076 NA  
ATOM     6   H5  UNL     1      -1.563   0.644  -2.918  1.00  0.00     0.083 HD  
ENDROOT
BRANCH   1   7
ATOM     7   C2  UNL     1      -1.584  -2.172  -3.398  1.00  0.00     0.170 C   
BRANCH   7   8
ATOM     8   C1  UNL     1      -2.889  -2.311  -2.590  1.00  0.00     0.165 C   
BRANCH   8   9
ATOM     9   O1  UNL     1      -3.705  -1.149  -2.795  1.00  0.00    -0.387 OA  
ATOM     10  H1  UNL     1      -4.603  -1.378  -2.485  1.00  0.00     0.211 HD  
ENDBRANCH   8   9
BRANCH   8  11
ATOM     11  C19 UNL     1      -2.688  -2.545  -1.110  1.00  0.00     0.000 A   
ATOM     12  C20 UNL     1      -2.454  -3.825  -0.599  1.00  0.00     0.009 A   
ATOM     13  C23 UNL     1      -2.678  -1.489  -0.196  1.00  0.00     0.117 A   
ATOM     14  C21 UNL     1      -2.237  -3.993   0.767  1.00  0.00     0.020 A   
ATOM     15  N5  UNL     1      -2.418  -1.612   1.126  1.00  0.00    -0.264 NA  
ATOM     16  C22 UNL     1      -2.229  -2.870   1.582  1.00  0.00     0.111 A   
ENDBRANCH   8  11
ENDBRANCH   7   8
ENDBRANCH   1   7
BRANCH   3  17
ATOM     17  C5  UNL     1       0.719   1.574  -0.988  1.00  0.00     0.117 C   
BRANCH  17  18
ATOM     18  N2  UNL     1       1.331   1.170   0.334  1.00  0.00     0.249 N   
ATOM     19  H7  UNL     1       1.855   1.939   0.762  1.00  0.00     0.199 HD  
ATOM     20  H8  UNL     1       2.014   0.425   0.128  1.00  0.00     0.199 HD  
BRANCH  18  21
ATOM     21  C6  UNL     1       0.371   0.607   1.331  1.00  0.00     0.164 C   
BRANCH  21  22
ATOM     22  C7  UNL     1       1.101   0.167   2.569  1.00  0.00    -0.002 A   
ATOM     23  C8  UNL     1       1.463  -1.191   2.732  1.00  0.00     0.012 A   
ATOM     24  C12 UNL     1       1.474   1.109   3.546  1.00  0.00     0.045 A   
ATOM     25  C9  UNL     1       2.179  -1.613   3.857  1.00  0.00     0.037 A   
ATOM     26  C11 UNL     1       2.188   0.661   4.638  1.00  0.00     0.109 A   
ATOM     27  C10 UNL     1       2.528  -0.661   4.791  1.00  0.00     0.108 A   
ATOM     28  O2  UNL     1       2.633   1.437   5.663  1.00  0.00    -0.316 OA  
ATOM     29  O3  UNL     1       3.233  -0.884   5.930  1.00  0.00    -0.316 OA  
ATOM     30  C13 UNL     1       3.301   0.449   6.481  1.00  0.00     0.337 C   
ENDBRANCH  21  22
ENDBRANCH  18  21
ENDBRANCH  17  18
BRANCH  17  31
ATOM     31  C14 UNL     1       1.698   2.529  -1.690  1.00  0.00     0.043 C   
ATOM     32  C15 UNL     1       3.049   1.946  -2.106  1.00  0.00     0.010 C   
ATOM     33  C18 UNL     1       1.188   3.121  -3.005  1.00  0.00     0.010 C   
ATOM     34  C16 UNL     1       3.627   3.008  -3.036  1.00  0.00     0.001 C   
ATOM     35  C17 UNL     1       2.429   3.743  -3.638  1.00  0.00     0.001 C   
ENDBRANCH  17  31
ENDBRANCH   3  17
TORSDOF 9
