REMARK SMILES O[C@H](Cn1cc([C@@H]([NH2+]Cc2ccc3c(c2)OCO3)C2CCCC2)nn1)c1cccnc1
REMARK SMILES IDX 4 1 5 2 6 3 24 4 25 5 3 7 2 8 1 9 26 11 27 12 31 13 28 14
REMARK SMILES IDX 30 15 29 16 7 17 8 18 9 21 10 22 11 23 15 24 12 25 14 26
REMARK SMILES IDX 13 27 16 28 18 29 17 30 19 31 20 32 23 33 21 34 22 35
REMARK H PARENT 5 6 1 10 8 19 8 20
ROOT
ATOM     1   N1  UNL     1      -3.677  -0.323  -0.734  1.00  0.00    -0.209 N   
ATOM     2   C3  UNL     1      -2.943   0.631  -0.082  1.00  0.00     0.045 A   
ATOM     3   C4  UNL     1      -2.394  -0.043   0.990  1.00  0.00     0.127 A   
ATOM     4   N3  UNL     1      -2.925  -1.308   1.029  1.00  0.00    -0.132 NA  
ATOM     5   N4  UNL     1      -3.702  -1.469  -0.031  1.00  0.00    -0.076 NA  
ATOM     6   H5  UNL     1      -2.771   1.611  -0.508  1.00  0.00     0.083 HD  
ENDROOT
BRANCH   1   7
ATOM     7   C2  UNL     1      -4.058  -0.312  -2.131  1.00  0.00     0.170 C   
BRANCH   7   8
ATOM     8   C1  UNL     1      -3.032  -1.033  -3.033  1.00  0.00     0.165 C   
BRANCH   8   9
ATOM     9   O1  UNL     1      -3.382  -0.834  -4.402  1.00  0.00    -0.387 OA  
ATOM     10  H1  UNL     1      -4.104  -1.450  -4.623  1.00  0.00     0.211 HD  
ENDBRANCH   8   9
BRANCH   8  11
ATOM     11  C19 UNL     1      -1.620  -0.524  -2.811  1.00  0.00     0.000 A   
ATOM     12  C20 UNL     1      -1.113   0.613  -3.442  1.00  0.00     0.009 A   
ATOM     13  C23 UNL     1      -0.814  -1.119  -1.839  1.00  0.00     0.117 A   
ATOM     14  C21 UNL     1       0.139   1.104  -3.080  1.00  0.00     0.020 A   
ATOM     15  N5  UNL     1       0.355  -0.602  -1.377  1.00  0.00    -0.264 NA  
ATOM     16  C22 UNL     1       0.826   0.473  -2.055  1.00  0.00     0.111 A   
ENDBRANCH   8  11
ENDBRANCH   7   8
ENDBRANCH   1   7
BRANCH   3  17
ATOM     17  C5  UNL     1      -1.279   0.324   1.923  1.00  0.00     0.117 C   
BRANCH  17  18
ATOM     18  N2  UNL     1      -0.010  -0.398   1.522  1.00  0.00     0.249 N   
ATOM     19  H7  UNL     1       0.814   0.038   1.940  1.00  0.00     0.199 HD  
ATOM     20  H8  UNL     1       0.132  -0.325   0.494  1.00  0.00     0.199 HD  
BRANCH  18  21
ATOM     21  C6  UNL     1       0.036  -1.852   1.860  1.00  0.00     0.164 C   
BRANCH  21  22
ATOM     22  C7  UNL     1       1.461  -2.330   1.936  1.00  0.00    -0.002 A   
ATOM     23  C8  UNL     1       2.139  -2.349   3.180  1.00  0.00     0.012 A   
ATOM     24  C12 UNL     1       2.149  -2.701   0.769  1.00  0.00     0.045 A   
ATOM     25  C9  UNL     1       3.479  -2.739   3.263  1.00  0.00     0.037 A   
ATOM     26  C11 UNL     1       3.471  -3.079   0.885  1.00  0.00     0.109 A   
ATOM     27  C10 UNL     1       4.117  -3.096   2.096  1.00  0.00     0.108 A   
ATOM     28  O2  UNL     1       4.278  -3.459  -0.140  1.00  0.00    -0.316 OA  
ATOM     29  O3  UNL     1       5.413  -3.491   1.987  1.00  0.00    -0.316 OA  
ATOM     30  C13 UNL     1       5.506  -3.740   0.568  1.00  0.00     0.337 C   
ENDBRANCH  21  22
ENDBRANCH  18  21
ENDBRANCH  17  18
BRANCH  17  31
ATOM     31  C14 UNL     1      -0.988   1.839   1.986  1.00  0.00     0.043 C   
ATOM     32  C15 UNL     1      -2.152   2.650   2.571  1.00  0.00     0.010 C   
ATOM     33  C18 UNL     1       0.154   2.232   2.933  1.00  0.00     0.010 C   
ATOM     34  C16 UNL     1      -1.534   3.995   2.926  1.00  0.00     0.001 C   
ATOM     35  C17 UNL     1      -0.062   3.716   3.213  1.00  0.00     0.001 C   
ENDBRANCH  17  31
ENDBRANCH   3  17
TORSDOF 9
