REMARK SMILES Cc1ccc(Cn2cc([C@@H]([NH2+]Cc3ccc4c(c3)OCO4)C3CCCC3)nn2)c(Cl)n1
REMARK SMILES IDX 7 1 8 2 9 3 27 4 28 5 6 7 5 8 2 9 3 10 31 11 4 12 29 13 1 14
REMARK SMILES IDX 30 15 10 16 11 17 12 20 13 21 14 22 18 23 15 24 17 25 16 26
REMARK SMILES IDX 19 27 21 28 20 29 22 30 23 31 26 32 24 33 25 34
REMARK H PARENT 8 6 11 18 11 19
ROOT
ATOM     1   N1  UNL     1       0.480   0.426   3.850  1.00  0.00    -0.208 N   
ATOM     2   C7  UNL     1       0.611   1.639   3.233  1.00  0.00     0.046 A   
ATOM     3   C8  UNL     1      -0.028   1.470   2.025  1.00  0.00     0.127 A   
ATOM     4   N3  UNL     1      -0.550   0.203   1.967  1.00  0.00    -0.132 NA  
ATOM     5   N4  UNL     1      -0.241  -0.423   3.090  1.00  0.00    -0.076 NA  
ATOM     6   H8  UNL     1       1.151   2.464   3.679  1.00  0.00     0.083 HD  
ENDROOT
BRANCH   1   7
ATOM     7   C6  UNL     1       1.003   0.008   5.142  1.00  0.00     0.172 C   
BRANCH   7   8
ATOM     8   C5  UNL     1       2.087  -1.020   4.995  1.00  0.00     0.009 A   
ATOM     9   C2  UNL     1       4.084  -2.909   4.676  1.00  0.00     0.039 A   
ATOM     10  C3  UNL     1       2.830  -3.321   5.109  1.00  0.00     0.024 A   
ATOM     11  N5  UNL     1       4.364  -1.616   4.400  1.00  0.00    -0.241 NA  
ATOM     12  C4  UNL     1       1.824  -2.369   5.264  1.00  0.00     0.010 A   
ATOM     13  C23 UNL     1       3.376  -0.714   4.570  1.00  0.00     0.134 A   
ATOM     14  C1  UNL     1       5.191  -3.907   4.506  1.00  0.00     0.067 C   
ATOM     15  CL1 UNL     1       3.879   0.889   4.195  1.00  0.00    -0.062 Cl  
ENDBRANCH   7   8
ENDBRANCH   1   7
BRANCH   3  16
ATOM     16  C9  UNL     1      -0.175   2.381   0.849  1.00  0.00     0.117 C   
BRANCH  16  17
ATOM     17  N2  UNL     1      -0.264   1.572  -0.417  1.00  0.00     0.249 N   
ATOM     18  H10 UNL     1      -0.696   2.094  -1.184  1.00  0.00     0.199 HD  
ATOM     19  H11 UNL     1      -0.894   0.780  -0.217  1.00  0.00     0.199 HD  
BRANCH  17  20
ATOM     20  C10 UNL     1       1.024   0.989  -0.888  1.00  0.00     0.164 C   
BRANCH  20  21
ATOM     21  C11 UNL     1       0.791   0.115  -2.088  1.00  0.00    -0.002 A   
ATOM     22  C12 UNL     1       0.425  -1.242  -1.916  1.00  0.00     0.012 A   
ATOM     23  C16 UNL     1       0.879   0.651  -3.384  1.00  0.00     0.045 A   
ATOM     24  C13 UNL     1       0.159  -2.059  -3.020  1.00  0.00     0.037 A   
ATOM     25  C15 UNL     1       0.612  -0.183  -4.450  1.00  0.00     0.109 A   
ATOM     26  C14 UNL     1       0.262  -1.499  -4.274  1.00  0.00     0.108 A   
ATOM     27  O1  UNL     1       0.651   0.174  -5.760  1.00  0.00    -0.316 OA  
ATOM     28  O2  UNL     1       0.038  -2.137  -5.452  1.00  0.00    -0.316 OA  
ATOM     29  C17 UNL     1       0.317  -1.081  -6.396  1.00  0.00     0.337 C   
ENDBRANCH  20  21
ENDBRANCH  17  20
ENDBRANCH  16  17
BRANCH  16  30
ATOM     30  C18 UNL     1      -1.401   3.303   0.990  1.00  0.00     0.043 C   
ATOM     31  C19 UNL     1      -2.773   2.628   0.890  1.00  0.00     0.010 C   
ATOM     32  C22 UNL     1      -1.465   4.439  -0.045  1.00  0.00     0.010 C   
ATOM     33  C20 UNL     1      -3.708   3.806   0.665  1.00  0.00     0.001 C   
ATOM     34  C21 UNL     1      -2.950   4.684  -0.320  1.00  0.00     0.001 C   
ENDBRANCH  16  30
ENDBRANCH   3  16
TORSDOF 7
