REMARK SMILES CC(C)C[C@H]([NH2+]Cc1ccc2c(c1)OCO2)c1cn(CCc2cc(O)ccc2O)nn1
REMARK SMILES IDX 17 1 18 2 19 3 30 4 31 5 5 7 4 8 2 9 1 10 3 11 6 12 7 15
REMARK SMILES IDX 8 16 9 17 13 18 10 19 12 20 11 21 14 22 16 23 15 24 20 25
REMARK SMILES IDX 21 26 22 27 23 28 28 29 24 30 27 31 26 32 29 33 25 35
REMARK H PARENT 18 6 6 13 6 14 29 34 25 36
ROOT
ATOM     1   C14 UNL     1       1.497  -0.670   2.172  1.00  0.00     0.127 A   
ATOM     2   C15 UNL     1       1.865   0.658   2.124  1.00  0.00     0.045 A   
ATOM     3   N2  UNL     1       1.377   1.177   3.291  1.00  0.00    -0.212 N   
ATOM     4   N3  UNL     1       0.819   0.215   4.048  1.00  0.00    -0.076 NA  
ATOM     5   N4  UNL     1       0.874  -0.918   3.365  1.00  0.00    -0.132 NA  
ATOM     6   H20 UNL     1       2.326   1.279   1.369  1.00  0.00     0.083 HD  
ENDROOT
BRANCH   1   7
ATOM     7   C5  UNL     1       1.568  -1.746   1.139  1.00  0.00     0.114 C   
BRANCH   7   8
ATOM     8   C4  UNL     1       2.911  -1.779   0.384  1.00  0.00     0.064 C   
BRANCH   8   9
ATOM     9   C2  UNL     1       4.143  -2.062   1.272  1.00  0.00    -0.012 C   
ATOM     10  C1  UNL     1       4.080  -3.444   1.927  1.00  0.00     0.007 C   
ATOM     11  C3  UNL     1       5.422  -1.946   0.436  1.00  0.00     0.007 C   
ENDBRANCH   8   9
ENDBRANCH   7   8
BRANCH   7  12
ATOM     12  N1  UNL     1       0.446  -1.545   0.148  1.00  0.00     0.249 N   
ATOM     13  H11 UNL     1       0.657  -0.755  -0.471  1.00  0.00     0.199 HD  
ATOM     14  H12 UNL     1      -0.389  -1.217   0.664  1.00  0.00     0.199 HD  
BRANCH  12  15
ATOM     15  C6  UNL     1       0.039  -2.742  -0.632  1.00  0.00     0.164 C   
BRANCH  15  16
ATOM     16  C7  UNL     1      -1.034  -2.410  -1.631  1.00  0.00    -0.002 A   
ATOM     17  C8  UNL     1      -2.384  -2.750  -1.373  1.00  0.00     0.012 A   
ATOM     18  C12 UNL     1      -0.709  -1.722  -2.813  1.00  0.00     0.045 A   
ATOM     19  C9  UNL     1      -3.397  -2.408  -2.275  1.00  0.00     0.037 A   
ATOM     20  C11 UNL     1      -1.731  -1.400  -3.680  1.00  0.00     0.109 A   
ATOM     21  C10 UNL     1      -3.038  -1.731  -3.419  1.00  0.00     0.108 A   
ATOM     22  O1  UNL     1      -1.591  -0.731  -4.856  1.00  0.00    -0.316 OA  
ATOM     23  O2  UNL     1      -3.884  -1.312  -4.396  1.00  0.00    -0.316 OA  
ATOM     24  C13 UNL     1      -2.954  -0.738  -5.340  1.00  0.00     0.337 C   
ENDBRANCH  15  16
ENDBRANCH  12  15
ENDBRANCH   7  12
ENDBRANCH   1   7
BRANCH   3  25
ATOM     25  C16 UNL     1       1.202   2.578   3.628  1.00  0.00     0.139 C   
BRANCH  25  26
ATOM     26  C17 UNL     1      -0.228   3.062   3.360  1.00  0.00     0.060 C   
BRANCH  26  27
ATOM     27  C18 UNL     1      -0.639   2.881   1.913  1.00  0.00    -0.014 A   
ATOM     28  C19 UNL     1      -1.283   1.697   1.523  1.00  0.00     0.039 A   
ATOM     29  C23 UNL     1      -0.324   3.824   0.931  1.00  0.00     0.075 A   
ATOM     30  C20 UNL     1      -1.570   1.466   0.185  1.00  0.00     0.072 A   
ATOM     31  C22 UNL     1      -0.656   3.609  -0.407  1.00  0.00     0.036 A   
ATOM     32  C21 UNL     1      -1.280   2.418  -0.785  1.00  0.00     0.036 A   
BRANCH  29  33
ATOM     33  O4  UNL     1       0.346   4.952   1.303  1.00  0.00    -0.361 OA  
ATOM     34  H29 UNL     1       0.291   5.607   0.584  1.00  0.00     0.218 HD  
ENDBRANCH  29  33
BRANCH  30  35
ATOM     35  O3  UNL     1      -2.098   0.255  -0.149  1.00  0.00    -0.361 OA  
ATOM     36  H26 UNL     1      -2.685   0.397  -0.920  1.00  0.00     0.218 HD  
ENDBRANCH  30  35
ENDBRANCH  26  27
ENDBRANCH  25  26
ENDBRANCH   3  25
TORSDOF 11
