REMARK SMILES Cc1nn(C)c(Cl)c1Cn1cc([C@@H]([NH2+]Cc2ccc3c(c2)OCO3)C2CCCCC2)nn1
REMARK SMILES IDX 10 1 11 2 12 3 31 4 32 5 9 7 8 8 2 9 3 10 4 11 6 12 1 13
REMARK SMILES IDX 5 14 7 15 13 16 14 17 15 20 16 21 17 22 21 23 18 24 20 25
REMARK SMILES IDX 19 26 22 27 24 28 23 29 25 30 26 31 30 32 27 33 29 34 28 35
REMARK H PARENT 11 6 14 18 14 19
ROOT
ATOM     1   N3  UNL     1      -0.498  -0.391   2.867  1.00  0.00    -0.208 N   
ATOM     2   C7  UNL     1      -0.500  -0.929   1.609  1.00  0.00     0.046 A   
ATOM     3   C8  UNL     1       0.736  -0.594   1.102  1.00  0.00     0.127 A   
ATOM     4   N5  UNL     1       1.452   0.069   2.062  1.00  0.00    -0.132 NA  
ATOM     5   N6  UNL     1       0.687   0.189   3.135  1.00  0.00    -0.076 NA  
ATOM     6   H9  UNL     1      -1.364  -1.425   1.188  1.00  0.00     0.083 HD  
ENDROOT
BRANCH   1   7
ATOM     7   C6  UNL     1      -1.601  -0.314   3.813  1.00  0.00     0.174 C   
BRANCH   7   8
ATOM     8   C5  UNL     1      -2.593   0.694   3.348  1.00  0.00     0.029 A   
ATOM     9   C2  UNL     1      -3.784   0.486   2.591  1.00  0.00     0.063 A   
ATOM     10  N1  UNL     1      -4.389   1.640   2.283  1.00  0.00    -0.185 NA  
ATOM     11  N2  UNL     1      -3.665   2.582   2.921  1.00  0.00    -0.217 N   
ATOM     12  C4  UNL     1      -2.566   2.057   3.529  1.00  0.00     0.123 A   
ATOM     13  C1  UNL     1      -4.368  -0.790   2.102  1.00  0.00     0.069 C   
ATOM     14  C3  UNL     1      -4.087   3.962   2.863  1.00  0.00     0.161 C   
ATOM     15  CL1 UNL     1      -1.440   3.058   4.318  1.00  0.00    -0.065 Cl  
ENDBRANCH   7   8
ENDBRANCH   1   7
BRANCH   3  16
ATOM     16  C9  UNL     1       1.298  -0.750  -0.274  1.00  0.00     0.117 C   
BRANCH  16  17
ATOM     17  N4  UNL     1       1.871   0.574  -0.751  1.00  0.00     0.249 N   
ATOM     18  H11 UNL     1       2.672   0.785  -0.142  1.00  0.00     0.199 HD  
ATOM     19  H12 UNL     1       2.222   0.480  -1.706  1.00  0.00     0.199 HD  
BRANCH  17  20
ATOM     20  C10 UNL     1       0.966   1.768  -0.708  1.00  0.00     0.164 C   
BRANCH  20  21
ATOM     21  C11 UNL     1      -0.341   1.575  -1.425  1.00  0.00    -0.002 A   
ATOM     22  C12 UNL     1      -1.558   1.639  -0.702  1.00  0.00     0.012 A   
ATOM     23  C16 UNL     1      -0.373   1.321  -2.807  1.00  0.00     0.045 A   
ATOM     24  C13 UNL     1      -2.788   1.432  -1.335  1.00  0.00     0.037 A   
ATOM     25  C15 UNL     1      -1.603   1.120  -3.401  1.00  0.00     0.109 A   
ATOM     26  C14 UNL     1      -2.776   1.171  -2.687  1.00  0.00     0.108 A   
ATOM     27  O1  UNL     1      -1.807   0.850  -4.717  1.00  0.00    -0.316 OA  
ATOM     28  O2  UNL     1      -3.865   0.942  -3.465  1.00  0.00    -0.316 OA  
ATOM     29  C17 UNL     1      -3.251   0.770  -4.759  1.00  0.00     0.337 C   
ENDBRANCH  20  21
ENDBRANCH  17  20
ENDBRANCH  16  17
BRANCH  16  30
ATOM     30  C18 UNL     1       2.409  -1.842  -0.339  1.00  0.00     0.043 C   
ATOM     31  C19 UNL     1       1.848  -3.219   0.089  1.00  0.00     0.010 C   
ATOM     32  C23 UNL     1       3.046  -1.956  -1.741  1.00  0.00     0.010 C   
ATOM     33  C20 UNL     1       2.887  -4.333  -0.009  1.00  0.00     0.001 C   
ATOM     34  C22 UNL     1       4.072  -3.084  -1.833  1.00  0.00     0.001 C   
ATOM     35  C21 UNL     1       3.484  -4.421  -1.405  1.00  0.00     0.000 C   
ENDBRANCH  16  30
ENDBRANCH   3  16
TORSDOF 7
