REMARK SMILES COc1cccc(CCn2cc([C@@H]([NH2+]Cc3ccc4c(c3)OCO4)C(C)(C)C)nn2)c1C
REMARK SMILES IDX 10 1 11 2 12 3 29 4 30 5 9 7 8 8 7 9 3 10 4 11 31 12 5 13
REMARK SMILES IDX 6 14 32 15 2 16 1 17 13 18 14 19 15 22 16 23 17 24 21 25
REMARK SMILES IDX 18 26 20 27 19 28 22 29 24 30 23 31 25 32 26 33 27 34 28 35
REMARK H PARENT 11 6 14 20 14 21
ROOT
ATOM     1   N1  UNL     1      -0.784   3.634  -0.770  1.00  0.00    -0.212 N   
ATOM     2   C9  UNL     1      -0.032   2.912   0.114  1.00  0.00     0.045 A   
ATOM     3   C10 UNL     1       0.922   2.313  -0.676  1.00  0.00     0.127 A   
ATOM     4   N3  UNL     1       0.740   2.707  -1.978  1.00  0.00    -0.132 NA  
ATOM     5   N4  UNL     1      -0.294   3.532  -2.018  1.00  0.00    -0.076 NA  
ATOM     6   H11 UNL     1      -0.277   2.845   1.165  1.00  0.00     0.083 HD  
ENDROOT
BRANCH   1   7
ATOM     7   C8  UNL     1      -2.022   4.341  -0.514  1.00  0.00     0.139 C   
BRANCH   7   8
ATOM     8   C7  UNL     1      -3.266   3.523  -0.883  1.00  0.00     0.057 C   
BRANCH   8   9
ATOM     9   C6  UNL     1      -3.353   2.204  -0.132  1.00  0.00    -0.041 A   
ATOM     10  C2  UNL     1      -3.125  -0.220   0.038  1.00  0.00     0.078 A   
ATOM     11  C3  UNL     1      -3.379  -0.144   1.411  1.00  0.00     0.034 A   
ATOM     12  C24 UNL     1      -3.117   0.951  -0.751  1.00  0.00    -0.018 A   
ATOM     13  C4  UNL     1      -3.647   1.085   2.009  1.00  0.00     0.003 A   
ATOM     14  C5  UNL     1      -3.634   2.249   1.245  1.00  0.00     0.004 A   
ATOM     15  C25 UNL     1      -2.907   0.859  -2.244  1.00  0.00     0.047 C   
BRANCH  10  16
ATOM     16  O1  UNL     1      -2.803  -1.396  -0.594  1.00  0.00    -0.349 OA  
ATOM     17  C1  UNL     1      -3.397  -2.573  -0.048  1.00  0.00     0.203 C   
ENDBRANCH  10  16
ENDBRANCH   8   9
ENDBRANCH   7   8
ENDBRANCH   1   7
BRANCH   3  18
ATOM     18  C11 UNL     1       1.948   1.270  -0.356  1.00  0.00     0.120 C   
BRANCH  18  19
ATOM     19  N2  UNL     1       1.871   0.196  -1.423  1.00  0.00     0.250 N   
ATOM     20  H13 UNL     1       1.776   0.700  -2.317  1.00  0.00     0.199 HD  
ATOM     21  H14 UNL     1       2.734  -0.348  -1.479  1.00  0.00     0.199 HD  
BRANCH  19  22
ATOM     22  C12 UNL     1       0.713  -0.742  -1.314  1.00  0.00     0.164 C   
BRANCH  22  23
ATOM     23  C13 UNL     1       0.932  -1.795  -0.263  1.00  0.00    -0.002 A   
ATOM     24  C14 UNL     1       1.786  -2.895  -0.520  1.00  0.00     0.012 A   
ATOM     25  C18 UNL     1       0.312  -1.682   0.993  1.00  0.00     0.045 A   
ATOM     26  C15 UNL     1       2.018  -3.869   0.457  1.00  0.00     0.037 A   
ATOM     27  C17 UNL     1       0.556  -2.662   1.932  1.00  0.00     0.109 A   
ATOM     28  C16 UNL     1       1.386  -3.724   1.672  1.00  0.00     0.108 A   
ATOM     29  O2  UNL     1       0.030  -2.707   3.184  1.00  0.00    -0.316 OA  
ATOM     30  O3  UNL     1       1.490  -4.571   2.728  1.00  0.00    -0.316 OA  
ATOM     31  C19 UNL     1       0.609  -3.936   3.680  1.00  0.00     0.337 C   
ENDBRANCH  22  23
ENDBRANCH  19  22
ENDBRANCH  18  19
BRANCH  18  32
ATOM     32  C20 UNL     1       3.412   1.814  -0.225  1.00  0.00     0.010 C   
ATOM     33  C21 UNL     1       4.350   0.694   0.284  1.00  0.00     0.017 C   
ATOM     34  C22 UNL     1       3.461   2.951   0.821  1.00  0.00     0.017 C   
ATOM     35  C23 UNL     1       3.978   2.351  -1.554  1.00  0.00     0.017 C   
ENDBRANCH  18  32
ENDBRANCH   3  18
TORSDOF 9
