REMARK SMILES CC(C)C[C@H]([NH2+]Cc1ccc2c(c1)OCO2)c1cn(CCc2ccc(O)c(F)c2)nn1
REMARK SMILES IDX 17 1 18 2 19 3 30 4 31 5 5 7 4 8 2 9 1 10 3 11 6 12 7 15
REMARK SMILES IDX 8 16 9 17 13 18 10 19 12 20 11 21 14 22 16 23 15 24 20 25
REMARK SMILES IDX 21 26 22 27 23 28 29 29 24 30 27 31 25 32 28 33 26 34
REMARK H PARENT 18 6 6 13 6 14 26 35
ROOT
ATOM     1   C14 UNL     1      -1.306  -0.508  -0.868  1.00  0.00     0.127 A   
ATOM     2   C15 UNL     1      -1.535  -1.865  -0.845  1.00  0.00     0.045 A   
ATOM     3   N2  UNL     1      -0.912  -2.322  -1.972  1.00  0.00    -0.212 N   
ATOM     4   N3  UNL     1      -0.359  -1.309  -2.663  1.00  0.00    -0.076 NA  
ATOM     5   N4  UNL     1      -0.594  -0.190  -1.996  1.00  0.00    -0.132 NA  
ATOM     6   H20 UNL     1      -2.019  -2.527  -0.140  1.00  0.00     0.083 HD  
ENDROOT
BRANCH   1   7
ATOM     7   C5  UNL     1      -1.613   0.552   0.135  1.00  0.00     0.114 C   
BRANCH   7   8
ATOM     8   C4  UNL     1      -2.783   1.457  -0.293  1.00  0.00     0.064 C   
BRANCH   8   9
ATOM     9   C2  UNL     1      -4.142   0.741  -0.445  1.00  0.00    -0.012 C   
ATOM     10  C1  UNL     1      -4.619   0.113   0.866  1.00  0.00     0.007 C   
ATOM     11  C3  UNL     1      -5.193   1.732  -0.953  1.00  0.00     0.007 C   
ENDBRANCH   8   9
ENDBRANCH   7   8
BRANCH   7  12
ATOM     12  N1  UNL     1      -0.408   1.445   0.318  1.00  0.00     0.249 N   
ATOM     13  H11 UNL     1      -0.121   1.757  -0.620  1.00  0.00     0.199 HD  
ATOM     14  H12 UNL     1      -0.651   2.289   0.847  1.00  0.00     0.199 HD  
BRANCH  12  15
ATOM     15  C6  UNL     1       0.774   0.796   0.955  1.00  0.00     0.164 C   
BRANCH  15  16
ATOM     16  C7  UNL     1       1.901   1.781   1.089  1.00  0.00    -0.002 A   
ATOM     17  C8  UNL     1       2.751   2.044  -0.014  1.00  0.00     0.012 A   
ATOM     18  C12 UNL     1       2.084   2.489   2.288  1.00  0.00     0.045 A   
ATOM     19  C9  UNL     1       3.773   2.995   0.077  1.00  0.00     0.037 A   
ATOM     20  C11 UNL     1       3.101   3.419   2.344  1.00  0.00     0.109 A   
ATOM     21  C10 UNL     1       3.922   3.665   1.271  1.00  0.00     0.108 A   
ATOM     22  O1  UNL     1       3.406   4.190   3.420  1.00  0.00    -0.316 OA  
ATOM     23  O2  UNL     1       4.850   4.621   1.537  1.00  0.00    -0.316 OA  
ATOM     24  C13 UNL     1       4.536   4.936   2.911  1.00  0.00     0.337 C   
ENDBRANCH  15  16
ENDBRANCH  12  15
ENDBRANCH   7  12
ENDBRANCH   1   7
BRANCH   3  25
ATOM     25  C16 UNL     1      -0.703  -3.698  -2.373  1.00  0.00     0.139 C   
BRANCH  25  26
ATOM     26  C17 UNL     1       0.740  -4.173  -2.158  1.00  0.00     0.057 C   
BRANCH  26  27
ATOM     27  C18 UNL     1       1.243  -3.934  -0.751  1.00  0.00    -0.043 A   
ATOM     28  C19 UNL     1       2.203  -2.933  -0.511  1.00  0.00     0.006 A   
ATOM     29  C23 UNL     1       0.727  -4.658   0.332  1.00  0.00     0.045 A   
ATOM     30  C20 UNL     1       2.617  -2.638   0.790  1.00  0.00     0.036 A   
ATOM     31  C22 UNL     1       1.144  -4.353   1.623  1.00  0.00     0.153 A   
ATOM     32  C21 UNL     1       2.071  -3.341   1.853  1.00  0.00     0.107 A   
ATOM     33  F1  UNL     1       0.624  -5.016   2.665  1.00  0.00    -0.204 F   
BRANCH  32  34
ATOM     34  O3  UNL     1       2.451  -3.008   3.120  1.00  0.00    -0.358 OA  
ATOM     35  H27 UNL     1       2.105  -3.700   3.717  1.00  0.00     0.218 HD  
ENDBRANCH  32  34
ENDBRANCH  26  27
ENDBRANCH  25  26
ENDBRANCH   3  25
TORSDOF 10
