REMARK SMILES CC(C)(C)[C@H]([NH2+]Cc1ccc2c(c1)OCO2)c1cn(Cc2cccc(F)c2O)nn1
REMARK SMILES IDX 17 1 18 2 19 3 29 4 30 5 5 7 2 8 1 9 3 10 4 11 6 12 7 15
REMARK SMILES IDX 8 16 9 17 13 18 10 19 12 20 11 21 14 22 16 23 15 24 20 25
REMARK SMILES IDX 21 26 22 27 27 28 23 29 25 30 24 31 26 32 28 33
REMARK H PARENT 18 6 6 13 6 14 28 34
ROOT
ATOM     1   C14 UNL     1      -1.614   1.025  -0.534  1.00  0.00     0.127 A   
ATOM     2   C15 UNL     1      -0.357   1.581  -0.453  1.00  0.00     0.046 A   
ATOM     3   N2  UNL     1      -0.433   2.419   0.624  1.00  0.00    -0.208 N   
ATOM     4   N3  UNL     1      -1.680   2.424   1.139  1.00  0.00    -0.076 NA  
ATOM     5   N4  UNL     1      -2.411   1.569   0.440  1.00  0.00    -0.132 NA  
ATOM     6   H20 UNL     1       0.565   1.421  -0.994  1.00  0.00     0.083 HD  
ENDROOT
BRANCH   1   7
ATOM     7   C5  UNL     1      -2.126  -0.086  -1.395  1.00  0.00     0.120 C   
BRANCH   7   8
ATOM     8   C2  UNL     1      -2.926   0.397  -2.659  1.00  0.00     0.010 C   
ATOM     9   C1  UNL     1      -3.309  -0.809  -3.548  1.00  0.00     0.017 C   
ATOM     10  C3  UNL     1      -4.218   1.157  -2.301  1.00  0.00     0.017 C   
ATOM     11  C4  UNL     1      -2.039   1.327  -3.518  1.00  0.00     0.017 C   
ENDBRANCH   7   8
BRANCH   7  12
ATOM     12  N1  UNL     1      -2.971  -1.042  -0.569  1.00  0.00     0.250 N   
ATOM     13  H11 UNL     1      -3.349  -1.784  -1.160  1.00  0.00     0.199 HD  
ATOM     14  H12 UNL     1      -3.761  -0.496  -0.204  1.00  0.00     0.199 HD  
BRANCH  12  15
ATOM     15  C6  UNL     1      -2.316  -1.675   0.622  1.00  0.00     0.164 C   
BRANCH  15  16
ATOM     16  C7  UNL     1      -1.031  -2.390   0.310  1.00  0.00    -0.002 A   
ATOM     17  C8  UNL     1      -1.027  -3.587  -0.443  1.00  0.00     0.012 A   
ATOM     18  C12 UNL     1       0.190  -1.845   0.749  1.00  0.00     0.045 A   
ATOM     19  C9  UNL     1       0.176  -4.226  -0.764  1.00  0.00     0.037 A   
ATOM     20  C11 UNL     1       1.358  -2.494   0.409  1.00  0.00     0.109 A   
ATOM     21  C10 UNL     1       1.351  -3.653  -0.325  1.00  0.00     0.108 A   
ATOM     22  O1  UNL     1       2.615  -2.088   0.732  1.00  0.00    -0.316 OA  
ATOM     23  O2  UNL     1       2.602  -4.131  -0.549  1.00  0.00    -0.316 OA  
ATOM     24  C13 UNL     1       3.400  -3.164   0.166  1.00  0.00     0.337 C   
ENDBRANCH  15  16
ENDBRANCH  12  15
ENDBRANCH   7  12
ENDBRANCH   1   7
BRANCH   3  25
ATOM     25  C16 UNL     1       0.632   3.203   1.226  1.00  0.00     0.172 C   
BRANCH  25  26
ATOM     26  C17 UNL     1       1.203   2.512   2.438  1.00  0.00     0.005 A   
ATOM     27  C18 UNL     1       0.890   2.971   3.729  1.00  0.00     0.008 A   
ATOM     28  C22 UNL     1       2.037   1.396   2.322  1.00  0.00     0.112 A   
ATOM     29  C19 UNL     1       1.405   2.334   4.864  1.00  0.00     0.004 A   
ATOM     30  C21 UNL     1       2.546   0.763   3.456  1.00  0.00     0.153 A   
ATOM     31  C20 UNL     1       2.238   1.225   4.727  1.00  0.00     0.042 A   
ATOM     32  F1  UNL     1       3.333  -0.312   3.308  1.00  0.00    -0.204 F   
BRANCH  28  33
ATOM     33  O3  UNL     1       2.345   0.910   1.079  1.00  0.00    -0.358 OA  
ATOM     34  H26 UNL     1       2.890   0.105   1.216  1.00  0.00     0.218 HD  
ENDBRANCH  28  33
ENDBRANCH  25  26
ENDBRANCH   3  25
TORSDOF 8
