REMARK SMILES COc1ncc(F)cc1Cn1cc([C@@H]([NH2+]Cc2ccc3c(c2)OCO3)C(C)C)nn1
REMARK SMILES IDX 11 1 12 2 13 3 29 4 30 5 10 7 9 8 3 9 4 10 5 11 8 12 6 13
REMARK SMILES IDX 7 14 2 15 1 16 14 17 15 18 16 21 17 22 18 23 22 24 19 25
REMARK SMILES IDX 21 26 20 27 23 28 25 29 24 30 26 31 27 32 28 33
REMARK H PARENT 12 6 15 19 15 20
ROOT
ATOM     1   N2  UNL     1       1.273  -1.456  -1.121  1.00  0.00    -0.208 N   
ATOM     2   C8  UNL     1       0.682  -1.776   0.071  1.00  0.00     0.046 A   
ATOM     3   C9  UNL     1      -0.662  -1.794  -0.222  1.00  0.00     0.127 A   
ATOM     4   N4  UNL     1      -0.840  -1.507  -1.552  1.00  0.00    -0.132 NA  
ATOM     5   N5  UNL     1       0.351  -1.308  -2.092  1.00  0.00    -0.076 NA  
ATOM     6   H8  UNL     1       1.252  -1.928   0.977  1.00  0.00     0.083 HD  
ENDROOT
BRANCH   1   7
ATOM     7   C7  UNL     1       2.687  -1.302  -1.414  1.00  0.00     0.174 C   
BRANCH   7   8
ATOM     8   C6  UNL     1       3.132   0.116  -1.200  1.00  0.00     0.024 A   
ATOM     9   C2  UNL     1       3.591   0.562   0.041  1.00  0.00     0.171 A   
ATOM     10  N1  UNL     1       3.994   1.830   0.284  1.00  0.00    -0.229 NA  
ATOM     11  C3  UNL     1       3.938   2.698  -0.755  1.00  0.00     0.153 A   
ATOM     12  C5  UNL     1       3.074   1.050  -2.244  1.00  0.00     0.050 A   
ATOM     13  C4  UNL     1       3.485   2.353  -2.013  1.00  0.00     0.142 A   
ATOM     14  F1  UNL     1       3.437   3.259  -2.996  1.00  0.00    -0.205 F   
BRANCH   9  15
ATOM     15  O1  UNL     1       3.607  -0.356   1.073  1.00  0.00    -0.332 OA  
ATOM     16  C1  UNL     1       4.211   0.146   2.263  1.00  0.00     0.205 C   
ENDBRANCH   9  15
ENDBRANCH   7   8
ENDBRANCH   1   7
BRANCH   3  17
ATOM     17  C10 UNL     1      -1.864  -2.007   0.642  1.00  0.00     0.117 C   
BRANCH  17  18
ATOM     18  N3  UNL     1      -3.023  -1.199   0.102  1.00  0.00     0.249 N   
ATOM     19  H10 UNL     1      -2.806  -1.034  -0.895  1.00  0.00     0.199 HD  
ATOM     20  H11 UNL     1      -3.890  -1.741   0.108  1.00  0.00     0.199 HD  
BRANCH  18  21
ATOM     21  C11 UNL     1      -3.271   0.119   0.749  1.00  0.00     0.164 C   
BRANCH  21  22
ATOM     22  C12 UNL     1      -2.117   1.079   0.669  1.00  0.00    -0.002 A   
ATOM     23  C13 UNL     1      -1.757   1.671  -0.566  1.00  0.00     0.012 A   
ATOM     24  C17 UNL     1      -1.372   1.383   1.821  1.00  0.00     0.045 A   
ATOM     25  C14 UNL     1      -0.674   2.554  -0.653  1.00  0.00     0.037 A   
ATOM     26  C16 UNL     1      -0.311   2.257   1.700  1.00  0.00     0.109 A   
ATOM     27  C15 UNL     1       0.026   2.830   0.499  1.00  0.00     0.108 A   
ATOM     28  O2  UNL     1       0.502   2.655   2.714  1.00  0.00    -0.316 OA  
ATOM     29  O3  UNL     1       1.086   3.672   0.606  1.00  0.00    -0.316 OA  
ATOM     30  C18 UNL     1       1.374   3.575   2.017  1.00  0.00     0.337 C   
ENDBRANCH  21  22
ENDBRANCH  18  21
ENDBRANCH  17  18
BRANCH  17  31
ATOM     31  C19 UNL     1      -2.248  -3.505   0.759  1.00  0.00     0.037 C   
ATOM     32  C20 UNL     1      -3.303  -3.730   1.850  1.00  0.00     0.014 C   
ATOM     33  C21 UNL     1      -2.717  -4.141  -0.555  1.00  0.00     0.014 C   
ENDBRANCH  17  31
ENDBRANCH   3  17
TORSDOF 8
