REMARK SMILES CC(C)[C@H]([NH2+]Cc1ccc2c(c1)OCO2)c1cn(CCc2cn3ccccc3n2)nn1
REMARK SMILES IDX 16 1 17 2 18 3 30 4 31 5 4 7 2 8 1 9 3 10 5 11 6 14 7 15
REMARK SMILES IDX 8 16 12 17 9 18 11 19 10 20 13 21 15 22 14 23 19 24 20 25
REMARK SMILES IDX 21 26 22 27 29 28 23 29 28 30 24 31 27 32 25 33 26 34
REMARK H PARENT 17 6 5 12 5 13
ROOT
ATOM     1   C13 UNL     1      -0.548  -2.258  -0.675  1.00  0.00     0.127 A   
ATOM     2   C14 UNL     1      -0.459  -1.386  -1.734  1.00  0.00     0.045 A   
ATOM     3   N2  UNL     1      -1.751  -1.231  -2.144  1.00  0.00    -0.212 N   
ATOM     4   N5  UNL     1      -2.586  -1.984  -1.403  1.00  0.00    -0.076 NA  
ATOM     5   N6  UNL     1      -1.860  -2.621  -0.499  1.00  0.00    -0.132 NA  
ATOM     6   H18 UNL     1       0.359  -0.843  -2.189  1.00  0.00     0.083 HD  
ENDROOT
BRANCH   1   7
ATOM     7   C4  UNL     1       0.487  -2.736   0.286  1.00  0.00     0.117 C   
BRANCH   7   8
ATOM     8   C2  UNL     1       1.131  -4.096  -0.091  1.00  0.00     0.037 C   
ATOM     9   C1  UNL     1       0.140  -5.261  -0.194  1.00  0.00     0.014 C   
ATOM     10  C3  UNL     1       1.941  -3.993  -1.388  1.00  0.00     0.014 C   
ENDBRANCH   7   8
BRANCH   7  11
ATOM     11  N1  UNL     1      -0.108  -2.856   1.675  1.00  0.00     0.249 N   
ATOM     12  H9  UNL     1      -0.954  -3.432   1.576  1.00  0.00     0.199 HD  
ATOM     13  H10 UNL     1       0.537  -3.353   2.295  1.00  0.00     0.199 HD  
BRANCH  11  14
ATOM     14  C5  UNL     1      -0.537  -1.578   2.321  1.00  0.00     0.164 C   
BRANCH  14  15
ATOM     15  C6  UNL     1       0.603  -0.639   2.599  1.00  0.00    -0.002 A   
ATOM     16  C7  UNL     1       0.752   0.544   1.835  1.00  0.00     0.012 A   
ATOM     17  C11 UNL     1       1.542  -0.938   3.602  1.00  0.00     0.045 A   
ATOM     18  C8  UNL     1       1.820   1.417   2.065  1.00  0.00     0.037 A   
ATOM     19  C10 UNL     1       2.585  -0.057   3.799  1.00  0.00     0.109 A   
ATOM     20  C9  UNL     1       2.721   1.087   3.052  1.00  0.00     0.108 A   
ATOM     21  O1  UNL     1       3.575  -0.199   4.717  1.00  0.00    -0.316 OA  
ATOM     22  O2  UNL     1       3.813   1.811   3.408  1.00  0.00    -0.316 OA  
ATOM     23  C12 UNL     1       4.341   1.005   4.483  1.00  0.00     0.337 C   
ENDBRANCH  14  15
ENDBRANCH  11  14
ENDBRANCH   7  11
ENDBRANCH   1   7
BRANCH   3  24
ATOM     24  C15 UNL     1      -2.263  -0.386  -3.203  1.00  0.00     0.140 C   
BRANCH  24  25
ATOM     25  C16 UNL     1      -2.937   0.878  -2.677  1.00  0.00     0.079 C   
BRANCH  25  26
ATOM     26  C17 UNL     1      -2.001   1.876  -2.077  1.00  0.00     0.059 A   
ATOM     27  C18 UNL     1      -2.320   3.031  -1.392  1.00  0.00     0.105 A   
ATOM     28  N4  UNL     1      -0.634   1.742  -2.180  1.00  0.00    -0.236 NA  
ATOM     29  N3  UNL     1      -1.126   3.639  -1.100  1.00  0.00    -0.266 N   
ATOM     30  C23 UNL     1      -0.127   2.819  -1.615  1.00  0.00     0.128 A   
ATOM     31  C19 UNL     1      -0.874   4.833  -0.431  1.00  0.00     0.082 A   
ATOM     32  C22 UNL     1       1.219   3.258  -1.456  1.00  0.00     0.045 A   
ATOM     33  C20 UNL     1       0.398   5.236  -0.270  1.00  0.00     0.016 A   
ATOM     34  C21 UNL     1       1.472   4.415  -0.812  1.00  0.00     0.005 A   
ENDBRANCH  25  26
ENDBRANCH  24  25
ENDBRANCH   3  24
TORSDOF 8
