REMARK SMILES CC(C)C[C@H]([NH2+]Cc1ccc2c(c1)OCO2)c1cn(CCc2ccon2)nn1
REMARK SMILES IDX 17 1 18 2 19 3 27 4 28 5 5 7 4 8 2 9 1 10 3 11 6 12 7 15
REMARK SMILES IDX 8 16 9 17 13 18 10 19 12 20 11 21 14 22 16 23 15 24 20 25
REMARK SMILES IDX 21 26 22 27 23 28 26 29 24 30 25 31
REMARK H PARENT 18 6 6 13 6 14
ROOT
ATOM     1   C14 UNL     1      -1.686   1.357   1.631  1.00  0.00     0.127 A   
ATOM     2   C15 UNL     1      -0.698   1.843   2.463  1.00  0.00     0.045 A   
ATOM     3   N2  UNL     1      -0.429   3.078   1.943  1.00  0.00    -0.212 N   
ATOM     4   N4  UNL     1      -1.314   3.405   0.984  1.00  0.00    -0.076 NA  
ATOM     5   N5  UNL     1      -2.085   2.350   0.775  1.00  0.00    -0.132 NA  
ATOM     6   H20 UNL     1      -0.080   1.392   3.227  1.00  0.00     0.083 HD  
ENDROOT
BRANCH   1   7
ATOM     7   C5  UNL     1      -2.164  -0.040   1.424  1.00  0.00     0.114 C   
BRANCH   7   8
ATOM     8   C4  UNL     1      -2.260  -0.880   2.713  1.00  0.00     0.064 C   
BRANCH   8   9
ATOM     9   C2  UNL     1      -3.240  -0.342   3.780  1.00  0.00    -0.012 C   
ATOM     10  C1  UNL     1      -3.227  -1.263   5.004  1.00  0.00     0.007 C   
ATOM     11  C3  UNL     1      -4.669  -0.208   3.248  1.00  0.00     0.007 C   
ENDBRANCH   8   9
ENDBRANCH   7   8
BRANCH   7  12
ATOM     12  N1  UNL     1      -1.198  -0.750   0.496  1.00  0.00     0.249 N   
ATOM     13  H11 UNL     1      -0.232  -0.490   0.762  1.00  0.00     0.199 HD  
ATOM     14  H12 UNL     1      -1.265  -1.768   0.605  1.00  0.00     0.199 HD  
BRANCH  12  15
ATOM     15  C6  UNL     1      -1.348  -0.412  -0.953  1.00  0.00     0.164 C   
BRANCH  15  16
ATOM     16  C7  UNL     1      -0.356  -1.196  -1.769  1.00  0.00    -0.002 A   
ATOM     17  C8  UNL     1       0.846  -0.589  -2.200  1.00  0.00     0.012 A   
ATOM     18  C12 UNL     1      -0.582  -2.557  -2.044  1.00  0.00     0.045 A   
ATOM     19  C9  UNL     1       1.819  -1.323  -2.884  1.00  0.00     0.037 A   
ATOM     20  C11 UNL     1       0.405  -3.256  -2.708  1.00  0.00     0.109 A   
ATOM     21  C10 UNL     1       1.571  -2.658  -3.115  1.00  0.00     0.108 A   
ATOM     22  O1  UNL     1       0.369  -4.582  -3.013  1.00  0.00    -0.316 OA  
ATOM     23  O2  UNL     1       2.413  -3.526  -3.733  1.00  0.00    -0.316 OA  
ATOM     24  C13 UNL     1       1.661  -4.756  -3.637  1.00  0.00     0.337 C   
ENDBRANCH  15  16
ENDBRANCH  12  15
ENDBRANCH   7  12
ENDBRANCH   1   7
BRANCH   3  25
ATOM     25  C16 UNL     1       0.768   3.870   2.142  1.00  0.00     0.140 C   
BRANCH  25  26
ATOM     26  C17 UNL     1       1.739   3.764   0.959  1.00  0.00     0.080 C   
BRANCH  26  27
ATOM     27  C18 UNL     1       2.413   2.431   0.821  1.00  0.00     0.072 A   
ATOM     28  C19 UNL     1       3.804   2.166   0.778  1.00  0.00     0.054 A   
ATOM     29  N3  UNL     1       1.704   1.299   0.666  1.00  0.00    -0.134 NA  
ATOM     30  C20 UNL     1       3.888   0.809   0.612  1.00  0.00     0.166 A   
ATOM     31  O3  UNL     1       2.639   0.285   0.545  1.00  0.00    -0.222 OA  
ENDBRANCH  26  27
ENDBRANCH  25  26
ENDBRANCH   3  25
TORSDOF 9
