REMARK SMILES Cc1cc(CCn2cc([C@H](CC(C)C)[NH2+]Cc3ccc4c(c3)OCO4)nn2)cnc1Cl
REMARK SMILES IDX 7 1 8 2 9 3 26 4 27 5 6 7 5 8 4 9 2 10 3 11 30 12 29 13
REMARK SMILES IDX 28 14 1 15 31 16 10 17 11 18 12 19 13 20 14 21 15 22 16 25
REMARK SMILES IDX 17 26 18 27 22 28 19 29 21 30 20 31 23 32 25 33 24 34
REMARK H PARENT 8 6 15 23 15 24
ROOT
ATOM     1   N1  UNL     1      -3.885   0.649   0.944  1.00  0.00    -0.212 N   
ATOM     2   C7  UNL     1      -3.086  -0.464   0.966  1.00  0.00     0.045 A   
ATOM     3   C8  UNL     1      -2.707  -0.629  -0.351  1.00  0.00     0.127 A   
ATOM     4   N3  UNL     1      -3.399   0.271  -1.122  1.00  0.00    -0.132 NA  
ATOM     5   N4  UNL     1      -4.111   1.049  -0.320  1.00  0.00    -0.076 NA  
ATOM     6   H9  UNL     1      -2.764  -0.920   1.891  1.00  0.00     0.083 HD  
ENDROOT
BRANCH   1   7
ATOM     7   C6  UNL     1      -4.146   1.545   2.058  1.00  0.00     0.139 C   
BRANCH   7   8
ATOM     8   C5  UNL     1      -3.160   2.731   2.117  1.00  0.00     0.058 C   
BRANCH   8   9
ATOM     9   C4  UNL     1      -1.715   2.291   2.034  1.00  0.00    -0.028 A   
ATOM     10  C2  UNL     1       0.268   1.295   3.007  1.00  0.00    -0.013 A   
ATOM     11  C3  UNL     1      -1.003   1.864   3.157  1.00  0.00     0.012 A   
ATOM     12  C23 UNL     1       0.740   1.137   1.707  1.00  0.00     0.131 A   
ATOM     13  N5  UNL     1       0.071   1.511   0.587  1.00  0.00    -0.244 NA  
ATOM     14  C22 UNL     1      -1.101   2.154   0.791  1.00  0.00     0.116 A   
ATOM     15  C1  UNL     1       1.043   0.837   4.205  1.00  0.00     0.048 C   
ATOM     16  CL1 UNL     1       2.212   0.331   1.335  1.00  0.00    -0.062 Cl  
ENDBRANCH   8   9
ENDBRANCH   7   8
ENDBRANCH   1   7
BRANCH   3  17
ATOM     17  C9  UNL     1      -1.635  -1.473  -0.973  1.00  0.00     0.114 C   
BRANCH  17  18
ATOM     18  C10 UNL     1      -1.134  -2.591  -0.031  1.00  0.00     0.064 C   
BRANCH  18  19
ATOM     19  C11 UNL     1      -0.165  -3.595  -0.699  1.00  0.00    -0.012 C   
ATOM     20  C12 UNL     1      -0.625  -5.035  -0.450  1.00  0.00     0.007 C   
ATOM     21  C13 UNL     1       1.263  -3.426  -0.173  1.00  0.00     0.007 C   
ENDBRANCH  18  19
ENDBRANCH  17  18
BRANCH  17  22
ATOM     22  N2  UNL     1      -0.459  -0.628  -1.394  1.00  0.00     0.249 N   
ATOM     23  H20 UNL     1       0.363  -1.209  -1.576  1.00  0.00     0.199 HD  
ATOM     24  H21 UNL     1      -0.182   0.007  -0.623  1.00  0.00     0.199 HD  
BRANCH  22  25
ATOM     25  C14 UNL     1      -0.672   0.228  -2.597  1.00  0.00     0.164 C   
BRANCH  25  26
ATOM     26  C15 UNL     1       0.650   0.591  -3.218  1.00  0.00    -0.002 A   
ATOM     27  C16 UNL     1       1.417   1.661  -2.699  1.00  0.00     0.012 A   
ATOM     28  C20 UNL     1       1.163  -0.177  -4.278  1.00  0.00     0.045 A   
ATOM     29  C17 UNL     1       2.674   1.970  -3.231  1.00  0.00     0.037 A   
ATOM     30  C19 UNL     1       2.404   0.155  -4.780  1.00  0.00     0.109 A   
ATOM     31  C18 UNL     1       3.139   1.198  -4.271  1.00  0.00     0.108 A   
ATOM     32  O1  UNL     1       3.042  -0.484  -5.796  1.00  0.00    -0.316 OA  
ATOM     33  O2  UNL     1       4.332   1.348  -4.904  1.00  0.00    -0.316 OA  
ATOM     34  C21 UNL     1       4.261   0.288  -5.882  1.00  0.00     0.337 C   
ENDBRANCH  25  26
ENDBRANCH  22  25
ENDBRANCH  17  22
ENDBRANCH   3  17
TORSDOF 9
