REMARK SMILES CC(C)C[C@H]([NH2+]Cc1ccc2c(c1)OCO2)c1cn(CCc2ccncc2Cl)nn1
REMARK SMILES IDX 17 1 18 2 19 3 29 4 30 5 5 7 4 8 2 9 1 10 3 11 6 12 7 15
REMARK SMILES IDX 8 16 9 17 13 18 10 19 12 20 11 21 14 22 16 23 15 24 20 25
REMARK SMILES IDX 21 26 22 27 23 28 27 29 24 30 26 31 25 32 28 33
REMARK H PARENT 18 6 6 13 6 14
ROOT
ATOM     1   C14 UNL     1       0.275  -1.053   1.057  1.00  0.00     0.127 A   
ATOM     2   C15 UNL     1       0.540  -2.320   0.588  1.00  0.00     0.045 A   
ATOM     3   N2  UNL     1      -0.663  -2.963   0.682  1.00  0.00    -0.212 N   
ATOM     4   N4  UNL     1      -1.602  -2.156   1.209  1.00  0.00    -0.076 NA  
ATOM     5   N5  UNL     1      -1.040  -0.980   1.438  1.00  0.00    -0.132 NA  
ATOM     6   H20 UNL     1       1.419  -2.791   0.169  1.00  0.00     0.083 HD  
ENDROOT
BRANCH   1   7
ATOM     7   C5  UNL     1       1.122   0.176   1.094  1.00  0.00     0.114 C   
BRANCH   7   8
ATOM     8   C4  UNL     1       1.578   0.543   2.517  1.00  0.00     0.064 C   
BRANCH   8   9
ATOM     9   C2  UNL     1       2.483  -0.502   3.204  1.00  0.00    -0.012 C   
ATOM     10  C1  UNL     1       2.799  -0.051   4.633  1.00  0.00     0.007 C   
ATOM     11  C3  UNL     1       3.785  -0.739   2.438  1.00  0.00     0.007 C   
ENDBRANCH   8   9
ENDBRANCH   7   8
BRANCH   7  12
ATOM     12  N1  UNL     1       0.325   1.346   0.566  1.00  0.00     0.249 N   
ATOM     13  H11 UNL     1       0.767   2.240   0.801  1.00  0.00     0.199 HD  
ATOM     14  H12 UNL     1      -0.580   1.330   1.060  1.00  0.00     0.199 HD  
BRANCH  12  15
ATOM     15  C6  UNL     1       0.040   1.311  -0.898  1.00  0.00     0.164 C   
BRANCH  15  16
ATOM     16  C7  UNL     1      -0.912   2.410  -1.275  1.00  0.00    -0.002 A   
ATOM     17  C8  UNL     1      -0.435   3.610  -1.853  1.00  0.00     0.012 A   
ATOM     18  C12 UNL     1      -2.286   2.264  -1.016  1.00  0.00     0.045 A   
ATOM     19  C9  UNL     1      -1.315   4.648  -2.178  1.00  0.00     0.037 A   
ATOM     20  C11 UNL     1      -3.126   3.306  -1.350  1.00  0.00     0.109 A   
ATOM     21  C10 UNL     1      -2.654   4.465  -1.914  1.00  0.00     0.108 A   
ATOM     22  O1  UNL     1      -4.472   3.324  -1.172  1.00  0.00    -0.316 OA  
ATOM     23  O2  UNL     1      -3.644   5.361  -2.162  1.00  0.00    -0.316 OA  
ATOM     24  C13 UNL     1      -4.801   4.629  -1.703  1.00  0.00     0.337 C   
ENDBRANCH  15  16
ENDBRANCH  12  15
ENDBRANCH   7  12
ENDBRANCH   1   7
BRANCH   3  25
ATOM     25  C16 UNL     1      -1.010  -4.268   0.159  1.00  0.00     0.139 C   
BRANCH  25  26
ATOM     26  C17 UNL     1      -1.949  -4.216  -1.057  1.00  0.00     0.058 C   
BRANCH  26  27
ATOM     27  C18 UNL     1      -1.606  -3.160  -2.088  1.00  0.00    -0.025 A   
ATOM     28  C19 UNL     1      -2.467  -2.058  -2.232  1.00  0.00     0.025 A   
ATOM     29  C22 UNL     1      -0.456  -3.197  -2.884  1.00  0.00     0.062 A   
ATOM     30  C20 UNL     1      -2.126  -1.037  -3.105  1.00  0.00     0.111 A   
ATOM     31  C21 UNL     1      -0.194  -2.118  -3.721  1.00  0.00     0.131 A   
ATOM     32  N3  UNL     1      -0.981  -1.018  -3.816  1.00  0.00    -0.263 NA  
ATOM     33  CL1 UNL     1       0.660  -4.505  -2.845  1.00  0.00    -0.082 Cl  
ENDBRANCH  26  27
ENDBRANCH  25  26
ENDBRANCH   3  25
TORSDOF 9
