REMARK SMILES CC(C)C[C@H]([NH2+]Cc1ccc2c(c1)OCO2)c1cn(Cc2cccc3cn[nH]c23)nn1
REMARK SMILES IDX 17 1 18 2 19 3 30 4 31 5 5 7 4 8 2 9 1 10 3 11 6 12 7 15
REMARK SMILES IDX 8 16 9 17 13 18 10 19 12 20 11 21 14 22 16 23 15 24 20 25
REMARK SMILES IDX 21 26 22 27 29 28 23 29 25 30 28 31 24 32 26 33 27 34
REMARK H PARENT 18 6 6 13 6 14 28 35
ROOT
ATOM     1   C14 UNL     1      -0.973   1.189  -0.991  1.00  0.00     0.127 A   
ATOM     2   C15 UNL     1       0.257   1.807  -1.056  1.00  0.00     0.046 A   
ATOM     3   N2  UNL     1      -0.021   3.125  -0.801  1.00  0.00    -0.208 N   
ATOM     4   N5  UNL     1      -1.350   3.313  -0.658  1.00  0.00    -0.076 NA  
ATOM     5   N6  UNL     1      -1.941   2.134  -0.766  1.00  0.00    -0.132 NA  
ATOM     6   H20 UNL     1       1.269   1.440  -1.161  1.00  0.00     0.083 HD  
ENDROOT
BRANCH   1   7
ATOM     7   C5  UNL     1      -1.343  -0.258  -0.992  1.00  0.00     0.114 C   
BRANCH   7   8
ATOM     8   C4  UNL     1      -2.098  -0.679  -2.266  1.00  0.00     0.064 C   
BRANCH   8   9
ATOM     9   C2  UNL     1      -1.293  -0.538  -3.576  1.00  0.00    -0.012 C   
ATOM     10  C1  UNL     1      -0.022  -1.389  -3.575  1.00  0.00     0.007 C   
ATOM     11  C3  UNL     1      -2.174  -0.928  -4.766  1.00  0.00     0.007 C   
ENDBRANCH   8   9
ENDBRANCH   7   8
BRANCH   7  12
ATOM     12  N1  UNL     1      -2.257  -0.552   0.184  1.00  0.00     0.249 N   
ATOM     13  H11 UNL     1      -3.024   0.134   0.138  1.00  0.00     0.199 HD  
ATOM     14  H12 UNL     1      -2.675  -1.482   0.085  1.00  0.00     0.199 HD  
BRANCH  12  15
ATOM     15  C6  UNL     1      -1.643  -0.442   1.545  1.00  0.00     0.164 C   
BRANCH  15  16
ATOM     16  C7  UNL     1      -0.674  -1.555   1.831  1.00  0.00    -0.002 A   
ATOM     17  C8  UNL     1      -1.150  -2.847   2.163  1.00  0.00     0.012 A   
ATOM     18  C12 UNL     1       0.710  -1.330   1.731  1.00  0.00     0.045 A   
ATOM     19  C9  UNL     1      -0.261  -3.904   2.384  1.00  0.00     0.037 A   
ATOM     20  C11 UNL     1       1.560  -2.397   1.944  1.00  0.00     0.109 A   
ATOM     21  C10 UNL     1       1.088  -3.647   2.262  1.00  0.00     0.108 A   
ATOM     22  O1  UNL     1       2.916  -2.360   1.859  1.00  0.00    -0.316 OA  
ATOM     23  O2  UNL     1       2.087  -4.552   2.428  1.00  0.00    -0.316 OA  
ATOM     24  C13 UNL     1       3.248  -3.734   2.165  1.00  0.00     0.337 C   
ENDBRANCH  15  16
ENDBRANCH  12  15
ENDBRANCH   7  12
ENDBRANCH   1   7
BRANCH   3  25
ATOM     25  C16 UNL     1       0.912   4.164  -0.380  1.00  0.00     0.171 C   
BRANCH  25  26
ATOM     26  C17 UNL     1       1.455   3.857   1.000  1.00  0.00    -0.005 A   
ATOM     27  C18 UNL     1       2.830   4.001   1.271  1.00  0.00     0.007 A   
ATOM     28  C23 UNL     1       0.669   3.415   2.087  1.00  0.00     0.061 A   
ATOM     29  C19 UNL     1       3.376   3.675   2.515  1.00  0.00     0.001 A   
ATOM     30  C21 UNL     1       1.194   3.043   3.319  1.00  0.00     0.017 A   
ATOM     31  N4  UNL     1      -0.690   3.245   2.224  1.00  0.00    -0.238 N   
ATOM     32  C20 UNL     1       2.573   3.177   3.546  1.00  0.00     0.012 A   
ATOM     33  C22 UNL     1       0.082   2.575   4.057  1.00  0.00     0.141 A   
ATOM     34  N3  UNL     1      -1.054   2.611   3.353  1.00  0.00    -0.192 NA  
ATOM     35  H27 UNL     1      -1.409   3.476   1.540  1.00  0.00     0.176 HD  
ENDBRANCH  25  26
ENDBRANCH   3  25
TORSDOF 8
