REMARK SMILES Cc1ccc(C)c([C@H](O)Cn2cc([C@H](CC(C)C)[NH2+]Cc3ccc4c(c3)OCO4)nn2)c1
REMARK SMILES IDX 11 1 12 2 13 3 30 4 31 5 10 7 8 8 7 9 2 10 3 11 32 12 4 13
REMARK SMILES IDX 5 14 1 15 6 16 9 17 14 19 15 20 16 21 17 22 18 23 19 24
REMARK SMILES IDX 20 27 21 28 22 29 26 30 23 31 25 32 24 33 27 34 29 35 28 36
REMARK H PARENT 12 6 9 18 19 25 19 26
ROOT
ATOM     1   N1  UNL     1       0.944  -0.686  -1.404  1.00  0.00    -0.209 N   
ATOM     2   C10 UNL     1       0.385  -1.106  -0.230  1.00  0.00     0.045 A   
ATOM     3   C11 UNL     1      -0.948  -1.260  -0.537  1.00  0.00     0.127 A   
ATOM     4   N3  UNL     1      -1.151  -0.929  -1.852  1.00  0.00    -0.132 NA  
ATOM     5   N4  UNL     1       0.013  -0.573  -2.370  1.00  0.00    -0.076 NA  
ATOM     6   H13 UNL     1       0.965  -1.251   0.670  1.00  0.00     0.083 HD  
ENDROOT
BRANCH   1   7
ATOM     7   C9  UNL     1       2.329  -0.355  -1.668  1.00  0.00     0.170 C   
BRANCH   7   8
ATOM     8   C8  UNL     1       2.541   1.159  -1.720  1.00  0.00     0.164 C   
BRANCH   8   9
ATOM     9   C7  UNL     1       3.949   1.488  -2.188  1.00  0.00    -0.015 A   
ATOM     10  C2  UNL     1       6.338   1.661  -1.657  1.00  0.00    -0.051 A   
ATOM     11  C3  UNL     1       6.590   2.055  -2.972  1.00  0.00     0.004 A   
ATOM     12  C25 UNL     1       5.019   1.390  -1.273  1.00  0.00     0.010 A   
ATOM     13  C4  UNL     1       5.547   2.144  -3.894  1.00  0.00     0.004 A   
ATOM     14  C5  UNL     1       4.225   1.849  -3.524  1.00  0.00    -0.045 A   
ATOM     15  C1  UNL     1       7.457   1.590  -0.660  1.00  0.00     0.044 C   
ATOM     16  C6  UNL     1       3.148   1.968  -4.569  1.00  0.00     0.045 C   
ENDBRANCH   8   9
BRANCH   8  17
ATOM     17  O1  UNL     1       2.314   1.731  -0.421  1.00  0.00    -0.387 OA  
ATOM     18  H10 UNL     1       2.730   2.616  -0.436  1.00  0.00     0.211 HD  
ENDBRANCH   8  17
ENDBRANCH   7   8
ENDBRANCH   1   7
BRANCH   3  19
ATOM     19  C12 UNL     1      -2.112  -1.640   0.312  1.00  0.00     0.114 C   
BRANCH  19  20
ATOM     20  C13 UNL     1      -2.586  -3.084   0.056  1.00  0.00     0.064 C   
BRANCH  20  21
ATOM     21  C14 UNL     1      -1.554  -4.182   0.393  1.00  0.00    -0.012 C   
ATOM     22  C15 UNL     1      -2.121  -5.554   0.017  1.00  0.00     0.007 C   
ATOM     23  C16 UNL     1      -1.156  -4.175   1.870  1.00  0.00     0.007 C   
ENDBRANCH  20  21
ENDBRANCH  19  20
BRANCH  19  24
ATOM     24  N2  UNL     1      -3.286  -0.733  -0.005  1.00  0.00     0.249 N   
ATOM     25  H24 UNL     1      -3.393  -0.750  -1.029  1.00  0.00     0.199 HD  
ATOM     26  H25 UNL     1      -4.147  -1.117   0.396  1.00  0.00     0.199 HD  
BRANCH  24  27
ATOM     27  C17 UNL     1      -3.141   0.696   0.405  1.00  0.00     0.164 C   
BRANCH  27  28
ATOM     28  C18 UNL     1      -3.101   0.873   1.897  1.00  0.00    -0.002 A   
ATOM     29  C19 UNL     1      -1.901   1.263   2.538  1.00  0.00     0.012 A   
ATOM     30  C23 UNL     1      -4.249   0.620   2.671  1.00  0.00     0.045 A   
ATOM     31  C20 UNL     1      -1.837   1.389   3.931  1.00  0.00     0.037 A   
ATOM     32  C22 UNL     1      -4.151   0.750   4.041  1.00  0.00     0.109 A   
ATOM     33  C21 UNL     1      -2.980   1.123   4.654  1.00  0.00     0.108 A   
ATOM     34  O2  UNL     1      -5.156   0.529   4.927  1.00  0.00    -0.316 OA  
ATOM     35  O3  UNL     1      -3.101   1.182   6.006  1.00  0.00    -0.316 OA  
ATOM     36  C24 UNL     1      -4.493   0.839   6.176  1.00  0.00     0.337 C   
ENDBRANCH  27  28
ENDBRANCH  24  27
ENDBRANCH  19  24
ENDBRANCH   3  19
TORSDOF 10
