REMARK SMILES Cc1ccc(C)c([C@@H](O)Cn2cc([C@H](CC(C)C)[NH2+]Cc3ccc4c(c3)OCO4)nn2)c1
REMARK SMILES IDX 11 1 12 2 13 3 30 4 31 5 10 7 8 8 7 9 2 10 3 11 32 12 4 13
REMARK SMILES IDX 5 14 1 15 6 16 9 17 14 19 15 20 16 21 17 22 18 23 19 24
REMARK SMILES IDX 20 27 21 28 22 29 26 30 23 31 25 32 24 33 27 34 29 35 28 36
REMARK H PARENT 12 6 9 18 19 25 19 26
ROOT
ATOM     1   N1  UNL     1       0.494   2.309   1.315  1.00  0.00    -0.209 N   
ATOM     2   C10 UNL     1       0.766   0.971   1.285  1.00  0.00     0.045 A   
ATOM     3   C11 UNL     1       1.632   0.834   0.224  1.00  0.00     0.127 A   
ATOM     4   N3  UNL     1       1.846   2.062  -0.345  1.00  0.00    -0.132 NA  
ATOM     5   N4  UNL     1       1.162   2.959   0.346  1.00  0.00    -0.076 NA  
ATOM     6   H13 UNL     1       0.312   0.271   1.973  1.00  0.00     0.083 HD  
ENDROOT
BRANCH   1   7
ATOM     7   C9  UNL     1      -0.446   3.002   2.163  1.00  0.00     0.170 C   
BRANCH   7   8
ATOM     8   C8  UNL     1      -1.685   3.501   1.407  1.00  0.00     0.164 C   
BRANCH   8   9
ATOM     9   C7  UNL     1      -2.404   2.407   0.627  1.00  0.00    -0.015 A   
ATOM     10  C2  UNL     1      -3.606   0.267   0.684  1.00  0.00    -0.051 A   
ATOM     11  C3  UNL     1      -3.710   0.299  -0.707  1.00  0.00     0.004 A   
ATOM     12  C25 UNL     1      -2.973   1.329   1.340  1.00  0.00     0.010 A   
ATOM     13  C4  UNL     1      -3.173   1.366  -1.429  1.00  0.00     0.004 A   
ATOM     14  C5  UNL     1      -2.509   2.421  -0.781  1.00  0.00    -0.045 A   
ATOM     15  C1  UNL     1      -4.229  -0.854   1.465  1.00  0.00     0.044 C   
ATOM     16  C6  UNL     1      -1.974   3.554  -1.618  1.00  0.00     0.045 C   
ENDBRANCH   8   9
BRANCH   8  17
ATOM     17  O1  UNL     1      -2.601   4.050   2.360  1.00  0.00    -0.387 OA  
ATOM     18  H10 UNL     1      -3.382   4.364   1.859  1.00  0.00     0.211 HD  
ENDBRANCH   8  17
ENDBRANCH   7   8
ENDBRANCH   1   7
BRANCH   3  19
ATOM     19  C12 UNL     1       2.212  -0.383  -0.411  1.00  0.00     0.114 C   
BRANCH  19  20
ATOM     20  C13 UNL     1       3.756  -0.394  -0.438  1.00  0.00     0.064 C   
BRANCH  20  21
ATOM     21  C14 UNL     1       4.441  -0.754   0.901  1.00  0.00    -0.012 C   
ATOM     22  C15 UNL     1       5.933  -1.006   0.655  1.00  0.00     0.007 C   
ATOM     23  C16 UNL     1       4.286   0.321   1.978  1.00  0.00     0.007 C   
ENDBRANCH  20  21
ENDBRANCH  19  20
BRANCH  19  24
ATOM     24  N2  UNL     1       1.750  -0.440  -1.858  1.00  0.00     0.249 N   
ATOM     25  H24 UNL     1       2.281  -1.151  -2.369  1.00  0.00     0.199 HD  
ATOM     26  H25 UNL     1       1.990   0.474  -2.269  1.00  0.00     0.199 HD  
BRANCH  24  27
ATOM     27  C17 UNL     1       0.290  -0.669  -2.082  1.00  0.00     0.164 C   
BRANCH  27  28
ATOM     28  C18 UNL     1      -0.146  -2.055  -1.697  1.00  0.00    -0.002 A   
ATOM     29  C19 UNL     1       0.156  -3.160  -2.530  1.00  0.00     0.012 A   
ATOM     30  C23 UNL     1      -0.827  -2.270  -0.486  1.00  0.00     0.045 A   
ATOM     31  C20 UNL     1      -0.208  -4.459  -2.161  1.00  0.00     0.037 A   
ATOM     32  C22 UNL     1      -1.167  -3.564  -0.150  1.00  0.00     0.109 A   
ATOM     33  C21 UNL     1      -0.865  -4.628  -0.963  1.00  0.00     0.108 A   
ATOM     34  O2  UNL     1      -1.812  -3.943   0.984  1.00  0.00    -0.316 OA  
ATOM     35  O3  UNL     1      -1.287  -5.811  -0.446  1.00  0.00    -0.316 OA  
ATOM     36  C24 UNL     1      -1.889  -5.375   0.791  1.00  0.00     0.337 C   
ENDBRANCH  27  28
ENDBRANCH  24  27
ENDBRANCH  19  24
ENDBRANCH   3  19
TORSDOF 10
