REMARK SMILES c1ccc2c(c1)CC(Cn1cc([C@@H]([NH2+]Cc3ccc4c(c3)OCO4)C3CCCCC3)nn1)C2
REMARK SMILES IDX 13 1 12 2 10 3 11 4 32 5 31 6 9 8 8 9 1 10 2 11 6 12 3 13
REMARK SMILES IDX 5 14 4 15 7 16 33 17 14 18 15 21 16 22 17 23 21 24 18 25
REMARK SMILES IDX 20 26 19 27 22 28 24 29 23 30 25 31 26 32 30 33 27 34 29 35
REMARK SMILES IDX 28 36
REMARK H PARENT 11 7 14 19 14 20
ROOT
ATOM     1   C12 UNL     1       0.186  -0.522   1.389  1.00  0.00     0.117 C   
ENDROOT
BRANCH   1   2
ATOM     2   C11 UNL     1      -0.847  -1.011   0.425  1.00  0.00     0.127 A   
ATOM     3   N1  UNL     1      -2.069  -1.638  -1.247  1.00  0.00    -0.212 N   
ATOM     4   C10 UNL     1      -0.790  -1.272  -0.926  1.00  0.00     0.045 A   
ATOM     5   N4  UNL     1      -2.863  -1.613  -0.159  1.00  0.00    -0.076 NA  
ATOM     6   N3  UNL     1      -2.128  -1.230   0.870  1.00  0.00    -0.132 NA  
ATOM     7   H10 UNL     1       0.005  -1.232  -1.658  1.00  0.00     0.083 HD  
BRANCH   3   8
ATOM     8   C9  UNL     1      -2.576  -2.133  -2.508  1.00  0.00     0.138 C   
BRANCH   8   9
ATOM     9   C8  UNL     1      -2.995  -1.083  -3.556  1.00  0.00     0.017 C   
ATOM     10  C1  UNL     1      -1.119   3.148  -2.730  1.00  0.00     0.000 A   
ATOM     11  C2  UNL     1      -2.342   3.323  -2.057  1.00  0.00     0.000 A   
ATOM     12  C6  UNL     1      -0.851   1.965  -3.422  1.00  0.00     0.004 A   
ATOM     13  C3  UNL     1      -3.315   2.320  -2.076  1.00  0.00     0.004 A   
ATOM     14  C5  UNL     1      -1.822   0.976  -3.431  1.00  0.00    -0.044 A   
ATOM     15  C4  UNL     1      -3.041   1.152  -2.769  1.00  0.00    -0.044 A   
ATOM     16  C7  UNL     1      -1.793  -0.325  -4.169  1.00  0.00     0.041 C   
ATOM     17  C27 UNL     1      -3.961  -0.007  -3.009  1.00  0.00     0.041 C   
ENDBRANCH   8   9
ENDBRANCH   3   8
ENDBRANCH   1   2
BRANCH   1  18
ATOM     18  N2  UNL     1      -0.487   0.161   2.564  1.00  0.00     0.249 N   
ATOM     19  H12 UNL     1      -1.268  -0.451   2.837  1.00  0.00     0.199 HD  
ATOM     20  H13 UNL     1       0.151   0.222   3.365  1.00  0.00     0.199 HD  
BRANCH  18  21
ATOM     21  C13 UNL     1      -1.069   1.508   2.296  1.00  0.00     0.164 C   
BRANCH  21  22
ATOM     22  C14 UNL     1      -0.018   2.575   2.160  1.00  0.00    -0.002 A   
ATOM     23  C15 UNL     1       0.323   3.080   0.882  1.00  0.00     0.012 A   
ATOM     24  C19 UNL     1       0.650   3.064   3.298  1.00  0.00     0.045 A   
ATOM     25  C16 UNL     1       1.306   4.064   0.733  1.00  0.00     0.037 A   
ATOM     26  C18 UNL     1       1.616   4.034   3.116  1.00  0.00     0.109 A   
ATOM     27  C17 UNL     1       1.934   4.521   1.871  1.00  0.00     0.108 A   
ATOM     28  O1  UNL     1       2.353   4.609   4.106  1.00  0.00    -0.316 OA  
ATOM     29  O2  UNL     1       2.905   5.469   1.919  1.00  0.00    -0.316 OA  
ATOM     30  C20 UNL     1       3.143   5.552   3.341  1.00  0.00     0.337 C   
ENDBRANCH  21  22
ENDBRANCH  18  21
ENDBRANCH   1  18
BRANCH   1  31
ATOM     31  C21 UNL     1       1.117  -1.630   1.952  1.00  0.00     0.043 C   
ATOM     32  C22 UNL     1       2.047  -2.207   0.863  1.00  0.00     0.010 C   
ATOM     33  C26 UNL     1       0.384  -2.775   2.680  1.00  0.00     0.010 C   
ATOM     34  C23 UNL     1       3.034  -3.221   1.443  1.00  0.00     0.001 C   
ATOM     35  C25 UNL     1       1.370  -3.792   3.258  1.00  0.00     0.001 C   
ATOM     36  C24 UNL     1       2.316  -4.339   2.193  1.00  0.00     0.000 C   
ENDBRANCH   1  31
TORSDOF 7
