REMARK SMILES CC(C)C[C@H]([NH2+]Cc1ccc2c(c1)OCO2)c1cn([C@H](CO)c2cn[nH]c2)nn1
REMARK SMILES IDX 17 1 18 2 19 3 28 4 29 5 5 7 4 8 2 9 1 10 3 11 6 12 7 15
REMARK SMILES IDX 8 16 9 17 13 18 10 19 12 20 11 21 14 22 16 23 15 24 20 25
REMARK SMILES IDX 21 26 22 27 23 29 24 30 27 31 25 32 26 33
REMARK H PARENT 18 6 6 13 6 14 22 28 26 34
ROOT
ATOM     1   C14 UNL     1      -1.054  -0.459   1.146  1.00  0.00     0.127 A   
ATOM     2   C15 UNL     1      -0.106  -0.025   2.042  1.00  0.00     0.046 A   
ATOM     3   N2  UNL     1      -0.540  -0.503   3.250  1.00  0.00    -0.202 N   
ATOM     4   N5  UNL     1      -1.686  -1.202   3.097  1.00  0.00    -0.075 NA  
ATOM     5   N6  UNL     1      -2.012  -1.175   1.816  1.00  0.00    -0.132 NA  
ATOM     6   H20 UNL     1       0.805   0.552   1.948  1.00  0.00     0.083 HD  
ENDROOT
BRANCH   1   7
ATOM     7   C5  UNL     1      -1.138  -0.323  -0.336  1.00  0.00     0.114 C   
BRANCH   7   8
ATOM     8   C4  UNL     1      -2.083   0.812  -0.776  1.00  0.00     0.064 C   
BRANCH   8   9
ATOM     9   C2  UNL     1      -1.657   2.230  -0.339  1.00  0.00    -0.012 C   
ATOM     10  C1  UNL     1      -0.287   2.625  -0.891  1.00  0.00     0.007 C   
ATOM     11  C3  UNL     1      -2.709   3.246  -0.794  1.00  0.00     0.007 C   
ENDBRANCH   8   9
ENDBRANCH   7   8
BRANCH   7  12
ATOM     12  N1  UNL     1      -1.687  -1.605  -0.931  1.00  0.00     0.249 N   
ATOM     13  H11 UNL     1      -2.523  -1.838  -0.377  1.00  0.00     0.199 HD  
ATOM     14  H12 UNL     1      -1.993  -1.447  -1.896  1.00  0.00     0.199 HD  
BRANCH  12  15
ATOM     15  C6  UNL     1      -0.778  -2.788  -0.891  1.00  0.00     0.164 C   
BRANCH  15  16
ATOM     16  C7  UNL     1       0.346  -2.686  -1.884  1.00  0.00    -0.002 A   
ATOM     17  C8  UNL     1       0.104  -2.904  -3.262  1.00  0.00     0.012 A   
ATOM     18  C12 UNL     1       1.639  -2.341  -1.455  1.00  0.00     0.045 A   
ATOM     19  C9  UNL     1       1.134  -2.779  -4.200  1.00  0.00     0.037 A   
ATOM     20  C11 UNL     1       2.631  -2.223  -2.408  1.00  0.00     0.109 A   
ATOM     21  C10 UNL     1       2.386  -2.436  -3.741  1.00  0.00     0.108 A   
ATOM     22  O1  UNL     1       3.927  -1.893  -2.164  1.00  0.00    -0.316 OA  
ATOM     23  O2  UNL     1       3.499  -2.274  -4.504  1.00  0.00    -0.316 OA  
ATOM     24  C13 UNL     1       4.483  -1.960  -3.497  1.00  0.00     0.337 C   
ENDBRANCH  15  16
ENDBRANCH  12  15
ENDBRANCH   7  12
ENDBRANCH   1   7
BRANCH   3  25
ATOM     25  C16 UNL     1       0.098  -0.409   4.563  1.00  0.00     0.158 C   
BRANCH  25  26
ATOM     26  C17 UNL     1      -0.063   0.995   5.172  1.00  0.00     0.186 C   
BRANCH  26  27
ATOM     27  O3  UNL     1       0.527   2.022   4.369  1.00  0.00    -0.394 OA  
ATOM     28  H24 UNL     1       0.482   2.846   4.888  1.00  0.00     0.210 HD  
ENDBRANCH  26  27
ENDBRANCH  25  26
BRANCH  25  29
ATOM     29  C18 UNL     1       1.506  -0.933   4.488  1.00  0.00     0.012 A   
ATOM     30  C19 UNL     1       1.884  -2.290   4.326  1.00  0.00     0.138 A   
ATOM     31  C20 UNL     1       2.715  -0.267   4.548  1.00  0.00     0.099 A   
ATOM     32  N3  UNL     1       3.204  -2.453   4.259  1.00  0.00    -0.193 NA  
ATOM     33  N4  UNL     1       3.692  -1.214   4.431  1.00  0.00    -0.246 N   
ATOM     34  H26 UNL     1       4.700  -1.089   4.451  1.00  0.00     0.175 HD  
ENDBRANCH  25  29
ENDBRANCH   3  25
TORSDOF 10
