REMARK SMILES CC(C)C[C@H]([NH2+]Cc1ccc2c(c1)OCO2)c1cn([C@@H](CO)c2cn[nH]c2)nn1
REMARK SMILES IDX 17 1 18 2 19 3 28 4 29 5 5 7 4 8 2 9 1 10 3 11 6 12 7 15
REMARK SMILES IDX 8 16 9 17 13 18 10 19 12 20 11 21 14 22 16 23 15 24 20 25
REMARK SMILES IDX 21 26 22 27 23 29 24 30 27 31 25 32 26 33
REMARK H PARENT 18 6 6 13 6 14 22 28 26 34
ROOT
ATOM     1   C14 UNL     1       0.164  -1.174   0.198  1.00  0.00     0.127 A   
ATOM     2   C15 UNL     1       1.235  -0.923   1.026  1.00  0.00     0.046 A   
ATOM     3   N2  UNL     1       2.074  -1.986   0.818  1.00  0.00    -0.202 N   
ATOM     4   N5  UNL     1       1.552  -2.826  -0.103  1.00  0.00    -0.075 NA  
ATOM     5   N6  UNL     1       0.382  -2.343  -0.482  1.00  0.00    -0.132 NA  
ATOM     6   H20 UNL     1       1.475  -0.124   1.714  1.00  0.00     0.083 HD  
ENDROOT
BRANCH   1   7
ATOM     7   C5  UNL     1      -1.069  -0.386  -0.086  1.00  0.00     0.114 C   
BRANCH   7   8
ATOM     8   C4  UNL     1      -2.315  -0.955   0.619  1.00  0.00     0.064 C   
BRANCH   8   9
ATOM     9   C2  UNL     1      -2.261  -0.935   2.162  1.00  0.00    -0.012 C   
ATOM     10  C1  UNL     1      -2.111   0.481   2.721  1.00  0.00     0.007 C   
ATOM     11  C3  UNL     1      -3.527  -1.585   2.730  1.00  0.00     0.007 C   
ENDBRANCH   8   9
ENDBRANCH   7   8
BRANCH   7  12
ATOM     12  N1  UNL     1      -1.358  -0.410  -1.575  1.00  0.00     0.249 N   
ATOM     13  H11 UNL     1      -2.303  -0.058  -1.759  1.00  0.00     0.199 HD  
ATOM     14  H12 UNL     1      -1.339  -1.403  -1.850  1.00  0.00     0.199 HD  
BRANCH  12  15
ATOM     15  C6  UNL     1      -0.384   0.305  -2.454  1.00  0.00     0.164 C   
BRANCH  15  16
ATOM     16  C7  UNL     1      -0.346   1.787  -2.202  1.00  0.00    -0.002 A   
ATOM     17  C8  UNL     1      -1.397   2.620  -2.657  1.00  0.00     0.012 A   
ATOM     18  C12 UNL     1       0.713   2.350  -1.465  1.00  0.00     0.045 A   
ATOM     19  C9  UNL     1      -1.399   3.990  -2.376  1.00  0.00     0.037 A   
ATOM     20  C11 UNL     1       0.673   3.701  -1.196  1.00  0.00     0.109 A   
ATOM     21  C10 UNL     1      -0.352   4.499  -1.638  1.00  0.00     0.108 A   
ATOM     22  O1  UNL     1       1.593   4.393  -0.474  1.00  0.00    -0.316 OA  
ATOM     23  O2  UNL     1      -0.203   5.795  -1.258  1.00  0.00    -0.316 OA  
ATOM     24  C13 UNL     1       1.042   5.729  -0.532  1.00  0.00     0.337 C   
ENDBRANCH  15  16
ENDBRANCH  12  15
ENDBRANCH   7  12
ENDBRANCH   1   7
BRANCH   3  25
ATOM     25  C16 UNL     1       3.385  -2.230   1.428  1.00  0.00     0.158 C   
BRANCH  25  26
ATOM     26  C17 UNL     1       3.432  -3.593   2.131  1.00  0.00     0.186 C   
BRANCH  26  27
ATOM     27  O3  UNL     1       2.651  -3.553   3.329  1.00  0.00    -0.394 OA  
ATOM     28  H24 UNL     1       2.661  -4.453   3.707  1.00  0.00     0.210 HD  
ENDBRANCH  26  27
ENDBRANCH  25  26
BRANCH  25  29
ATOM     29  C18 UNL     1       4.473  -2.050   0.411  1.00  0.00     0.012 A   
ATOM     30  C19 UNL     1       4.685  -2.780  -0.785  1.00  0.00     0.138 A   
ATOM     31  C20 UNL     1       5.515  -1.141   0.427  1.00  0.00     0.099 A   
ATOM     32  N3  UNL     1       5.752  -2.357  -1.462  1.00  0.00    -0.193 NA  
ATOM     33  N4  UNL     1       6.255  -1.377  -0.697  1.00  0.00    -0.246 N   
ATOM     34  H26 UNL     1       7.106  -0.915  -1.006  1.00  0.00     0.175 HD  
ENDBRANCH  25  29
ENDBRANCH   3  25
TORSDOF 10
