REMARK SMILES CC(=O)Nc1ccc(S(=O)(=O)n2cc([C@@H]([NH2+]Cc3ccc4c(c3)OCO4)C(C)(C)C)nn2)cc1
REMARK SMILES IDX 12 1 13 2 14 3 31 4 32 5 9 6 10 7 11 8 8 9 5 10 6 11 34 12
REMARK SMILES IDX 7 13 33 14 4 15 2 16 1 17 3 18 15 20 16 21 17 24 18 25 19 26
REMARK SMILES IDX 23 27 20 28 22 29 21 30 24 31 26 32 25 33 27 34 28 35 29 36
REMARK SMILES IDX 30 37
REMARK H PARENT 4 19 16 22 16 23
ROOT
ATOM     1   N2  UNL     1       0.335   0.816  -1.851  1.00  0.00     0.097 N   
ATOM     2   C7  UNL     1       0.736  -0.501  -1.839  1.00  0.00     0.250 A   
ATOM     3   C8  UNL     1      -0.406  -1.197  -1.509  1.00  0.00     0.138 A   
ATOM     4   N4  UNL     1      -1.449  -0.313  -1.372  1.00  0.00    -0.123 NA  
ATOM     5   N5  UNL     1      -0.997   0.907  -1.619  1.00  0.00     0.020 NA  
ENDROOT
BRANCH   1   6
ATOM     6   S1  UNL     1       1.380   2.101  -2.268  1.00  0.00    -0.080 S   
ATOM     7   O2  UNL     1       1.299   2.180  -3.713  1.00  0.00    -0.476 OA  
ATOM     8   O3  UNL     1       2.622   1.802  -1.577  1.00  0.00    -0.476 OA  
BRANCH   6   9
ATOM     9   C6  UNL     1       0.632   3.526  -1.543  1.00  0.00     0.341 A   
ATOM     10  C3  UNL     1      -0.589   5.755  -0.361  1.00  0.00     0.033 A   
ATOM     11  C4  UNL     1      -0.845   5.427  -1.700  1.00  0.00     0.036 A   
ATOM     12  C23 UNL     1       0.309   4.969   0.367  1.00  0.00     0.036 A   
ATOM     13  C5  UNL     1      -0.239   4.316  -2.295  1.00  0.00     0.140 A   
ATOM     14  C22 UNL     1       0.926   3.861  -0.221  1.00  0.00     0.140 A   
BRANCH  10  15
ATOM     15  N1  UNL     1      -1.254   6.879   0.170  1.00  0.00    -0.286 N   
ATOM     16  C2  UNL     1      -1.242   7.314   1.484  1.00  0.00     0.213 C   
ATOM     17  C1  UNL     1      -2.043   8.579   1.669  1.00  0.00     0.111 C   
ATOM     18  O1  UNL     1      -0.689   6.769   2.433  1.00  0.00    -0.278 OA  
ATOM     19  H4  UNL     1      -1.833   7.405  -0.474  1.00  0.00     0.156 HD  
ENDBRANCH  10  15
ENDBRANCH   6   9
ENDBRANCH   1   6
BRANCH   3  20
ATOM     20  C9  UNL     1      -0.629  -2.651  -1.200  1.00  0.00     0.120 C   
BRANCH  20  21
ATOM     21  N3  UNL     1      -1.534  -2.748   0.018  1.00  0.00     0.250 N   
ATOM     22  H9  UNL     1      -2.123  -1.901   0.006  1.00  0.00     0.199 HD  
ATOM     23  H10 UNL     1      -2.187  -3.532  -0.062  1.00  0.00     0.199 HD  
BRANCH  21  24
ATOM     24  C10 UNL     1      -0.859  -2.828   1.350  1.00  0.00     0.164 C   
BRANCH  24  25
ATOM     25  C11 UNL     1       0.027  -1.652   1.653  1.00  0.00    -0.002 A   
ATOM     26  C12 UNL     1      -0.534  -0.398   1.995  1.00  0.00     0.012 A   
ATOM     27  C16 UNL     1       1.422  -1.773   1.529  1.00  0.00     0.045 A   
ATOM     28  C13 UNL     1       0.278   0.726   2.185  1.00  0.00     0.037 A   
ATOM     29  C15 UNL     1       2.192  -0.644   1.714  1.00  0.00     0.109 A   
ATOM     30  C14 UNL     1       1.637   0.570   2.029  1.00  0.00     0.108 A   
ATOM     31  O4  UNL     1       3.542  -0.583   1.583  1.00  0.00    -0.316 OA  
ATOM     32  O5  UNL     1       2.569   1.550   2.143  1.00  0.00    -0.316 OA  
ATOM     33  C17 UNL     1       3.783   0.814   1.874  1.00  0.00     0.337 C   
ENDBRANCH  24  25
ENDBRANCH  21  24
ENDBRANCH  20  21
BRANCH  20  34
ATOM     34  C18 UNL     1      -1.218  -3.480  -2.394  1.00  0.00     0.010 C   
ATOM     35  C19 UNL     1      -0.302  -3.347  -3.633  1.00  0.00     0.017 C   
ATOM     36  C20 UNL     1      -2.638  -3.032  -2.792  1.00  0.00     0.017 C   
ATOM     37  C21 UNL     1      -1.262  -4.983  -2.028  1.00  0.00     0.017 C   
ENDBRANCH  20  34
ENDBRANCH   3  20
TORSDOF 8
