REMARK SMILES COc1ccc(O)c(Cn2cc([C@@H]([NH2+]Cc3ccc4c(c3)OCO4)C3CCCC3)nn2)c1
REMARK SMILES IDX 10 1 11 2 12 3 30 4 31 5 9 7 8 8 3 9 4 10 32 11 5 12 6 13
REMARK SMILES IDX 2 14 1 15 7 16 13 18 14 19 15 22 16 23 17 24 21 25 18 26
REMARK SMILES IDX 20 27 19 28 22 29 24 30 23 31 25 32 26 33 29 34 27 35 28 36
REMARK H PARENT 11 6 7 17 14 20 14 21
ROOT
ATOM     1   N1  UNL     1       1.760   1.919  -0.450  1.00  0.00    -0.208 N   
ATOM     2   C8  UNL     1       0.564   1.617   0.141  1.00  0.00     0.046 A   
ATOM     3   C9  UNL     1       0.778   0.391   0.732  1.00  0.00     0.127 A   
ATOM     4   N3  UNL     1       2.070   0.002   0.492  1.00  0.00    -0.132 NA  
ATOM     5   N4  UNL     1       2.653   0.934  -0.241  1.00  0.00    -0.076 NA  
ATOM     6   H9  UNL     1      -0.287   2.280   0.081  1.00  0.00     0.083 HD  
ENDROOT
BRANCH   1   7
ATOM     7   C7  UNL     1       2.139   3.113  -1.183  1.00  0.00     0.172 C   
BRANCH   7   8
ATOM     8   C6  UNL     1       1.298   3.300  -2.417  1.00  0.00     0.004 A   
ATOM     9   C2  UNL     1       0.815   2.726  -4.741  1.00  0.00     0.075 A   
ATOM     10  C3  UNL     1      -0.238   3.643  -4.746  1.00  0.00     0.036 A   
ATOM     11  C24 UNL     1       1.575   2.559  -3.579  1.00  0.00     0.041 A   
ATOM     12  C4  UNL     1      -0.531   4.380  -3.597  1.00  0.00     0.036 A   
ATOM     13  C5  UNL     1       0.230   4.200  -2.444  1.00  0.00     0.076 A   
BRANCH   9  14
ATOM     14  O1  UNL     1       1.193   1.929  -5.786  1.00  0.00    -0.349 OA  
ATOM     15  C1  UNL     1       0.577   2.189  -7.040  1.00  0.00     0.203 C   
ENDBRANCH   9  14
BRANCH  13  16
ATOM     16  O2  UNL     1      -0.070   4.899  -1.310  1.00  0.00    -0.361 OA  
ATOM     17  H6  UNL     1      -0.706   5.603  -1.538  1.00  0.00     0.218 HD  
ENDBRANCH  13  16
ENDBRANCH   7   8
ENDBRANCH   1   7
BRANCH   3  18
ATOM     18  C10 UNL     1      -0.129  -0.522   1.496  1.00  0.00     0.117 C   
BRANCH  18  19
ATOM     19  N2  UNL     1       0.443  -1.920   1.478  1.00  0.00     0.249 N   
ATOM     20  H11 UNL     1       1.458  -1.819   1.636  1.00  0.00     0.199 HD  
ATOM     21  H12 UNL     1       0.092  -2.502   2.243  1.00  0.00     0.199 HD  
BRANCH  19  22
ATOM     22  C11 UNL     1       0.279  -2.664   0.198  1.00  0.00     0.164 C   
BRANCH  22  23
ATOM     23  C12 UNL     1       1.028  -3.965   0.265  1.00  0.00    -0.002 A   
ATOM     24  C13 UNL     1       2.385  -4.021  -0.140  1.00  0.00     0.012 A   
ATOM     25  C17 UNL     1       0.416  -5.112   0.795  1.00  0.00     0.045 A   
ATOM     26  C14 UNL     1       3.119  -5.205  -0.027  1.00  0.00     0.037 A   
ATOM     27  C16 UNL     1       1.170  -6.261   0.898  1.00  0.00     0.109 A   
ATOM     28  C15 UNL     1       2.482  -6.308   0.498  1.00  0.00     0.108 A   
ATOM     29  O3  UNL     1       0.742  -7.446   1.405  1.00  0.00    -0.316 OA  
ATOM     30  O4  UNL     1       3.041  -7.531   0.692  1.00  0.00    -0.316 OA  
ATOM     31  C18 UNL     1       1.932  -8.255   1.259  1.00  0.00     0.337 C   
ENDBRANCH  22  23
ENDBRANCH  19  22
ENDBRANCH  18  19
BRANCH  18  32
ATOM     32  C19 UNL     1      -0.305  -0.086   2.965  1.00  0.00     0.043 C   
ATOM     33  C20 UNL     1      -1.012   1.263   3.123  1.00  0.00     0.010 C   
ATOM     34  C23 UNL     1      -1.204  -1.015   3.791  1.00  0.00     0.010 C   
ATOM     35  C21 UNL     1      -1.436   1.285   4.582  1.00  0.00     0.001 C   
ATOM     36  C22 UNL     1      -1.764  -0.161   4.926  1.00  0.00     0.001 C   
ENDBRANCH  18  32
ENDBRANCH   3  18
TORSDOF 9
