REMARK SMILES CC(=O)c1ccc(-n2cc([C@@H]([NH2+]Cc3ccc4c(c3)OCO4)C(C)(C)C)nn2)cc1
REMARK SMILES IDX 8 1 9 2 10 3 27 4 28 5 7 6 4 7 5 8 30 9 6 10 29 11 2 12 1 13
REMARK SMILES IDX 3 14 11 15 12 16 13 19 14 20 15 21 19 22 16 23 18 24 17 25
REMARK SMILES IDX 20 26 22 27 21 28 23 29 24 30 25 31 26 32
REMARK H PARENT 12 17 12 18
ROOT
ATOM     1   N1  UNL     1       0.024   0.571   0.467  1.00  0.00    -0.181 N   
ATOM     2   C7  UNL     1       0.968  -0.340   0.898  1.00  0.00     0.135 A   
ATOM     3   C8  UNL     1       2.182   0.238   0.599  1.00  0.00     0.128 A   
ATOM     4   N3  UNL     1       1.969   1.476   0.064  1.00  0.00    -0.131 NA  
ATOM     5   N4  UNL     1       0.663   1.679   0.009  1.00  0.00    -0.071 NA  
ENDROOT
BRANCH   1   6
ATOM     6   C6  UNL     1      -1.386   0.438   0.416  1.00  0.00     0.058 A   
ATOM     7   C3  UNL     1      -4.184   0.188   0.238  1.00  0.00     0.017 A   
ATOM     8   C4  UNL     1      -3.556   1.363  -0.185  1.00  0.00     0.014 A   
ATOM     9   C23 UNL     1      -3.405  -0.856   0.755  1.00  0.00     0.014 A   
ATOM     10  C5  UNL     1      -2.164   1.488  -0.096  1.00  0.00     0.027 A   
ATOM     11  C22 UNL     1      -2.014  -0.736   0.847  1.00  0.00     0.027 A   
BRANCH   7  12
ATOM     12  C2  UNL     1      -5.662  -0.007   0.154  1.00  0.00     0.159 C   
ATOM     13  C1  UNL     1      -6.526   1.130  -0.325  1.00  0.00     0.093 C   
ATOM     14  O1  UNL     1      -6.147  -1.091   0.472  1.00  0.00    -0.295 OA  
ENDBRANCH   7  12
ENDBRANCH   1   6
BRANCH   3  15
ATOM     15  C9  UNL     1       3.574  -0.318   0.646  1.00  0.00     0.120 C   
BRANCH  15  16
ATOM     16  N2  UNL     1       4.268   0.016  -0.665  1.00  0.00     0.250 N   
ATOM     17  H8  UNL     1       3.867   0.915  -0.977  1.00  0.00     0.199 HD  
ATOM     18  H9  UNL     1       5.265   0.193  -0.525  1.00  0.00     0.199 HD  
BRANCH  16  19
ATOM     19  C10 UNL     1       4.112  -0.975  -1.775  1.00  0.00     0.164 C   
BRANCH  19  20
ATOM     20  C11 UNL     1       2.696  -1.144  -2.249  1.00  0.00    -0.002 A   
ATOM     21  C12 UNL     1       2.074  -0.129  -3.017  1.00  0.00     0.012 A   
ATOM     22  C16 UNL     1       1.954  -2.280  -1.879  1.00  0.00     0.045 A   
ATOM     23  C13 UNL     1       0.728  -0.230  -3.388  1.00  0.00     0.037 A   
ATOM     24  C15 UNL     1       0.627  -2.342  -2.254  1.00  0.00     0.109 A   
ATOM     25  C14 UNL     1       0.031  -1.345  -2.985  1.00  0.00     0.108 A   
ATOM     26  O2  UNL     1      -0.237  -3.341  -1.937  1.00  0.00    -0.316 OA  
ATOM     27  O3  UNL     1      -1.281  -1.595  -3.229  1.00  0.00    -0.316 OA  
ATOM     28  C17 UNL     1      -1.438  -2.888  -2.606  1.00  0.00     0.337 C   
ENDBRANCH  19  20
ENDBRANCH  16  19
ENDBRANCH  15  16
BRANCH  15  29
ATOM     29  C18 UNL     1       4.425   0.179   1.866  1.00  0.00     0.010 C   
ATOM     30  C19 UNL     1       5.773  -0.577   1.917  1.00  0.00     0.017 C   
ATOM     31  C20 UNL     1       3.685  -0.132   3.187  1.00  0.00     0.017 C   
ATOM     32  C21 UNL     1       4.717   1.692   1.820  1.00  0.00     0.017 C   
ENDBRANCH  15  29
ENDBRANCH   3  15
TORSDOF 7
