REMARK SMILES CC(C)(C)[C@H]([NH2+]Cc1ccc2c(c1)OCO2)c1cn(Cc2cnccc2Cl)nn1
REMARK SMILES IDX 17 1 18 2 19 3 28 4 29 5 5 7 2 8 1 9 3 10 4 11 6 12 7 15
REMARK SMILES IDX 8 16 9 17 13 18 10 19 12 20 11 21 14 22 16 23 15 24 20 25
REMARK SMILES IDX 21 26 22 27 26 28 23 29 25 30 24 31 27 32
REMARK H PARENT 18 6 6 13 6 14
ROOT
ATOM     1   C14 UNL     1      -0.181  -1.005  -1.085  1.00  0.00     0.127 A   
ATOM     2   C15 UNL     1       1.024  -1.299  -0.486  1.00  0.00     0.046 A   
ATOM     3   N2  UNL     1       1.915  -0.478  -1.117  1.00  0.00    -0.208 N   
ATOM     4   N4  UNL     1       1.304   0.251  -2.071  1.00  0.00    -0.076 NA  
ATOM     5   N5  UNL     1       0.015  -0.040  -2.038  1.00  0.00    -0.132 NA  
ATOM     6   H20 UNL     1       1.315  -1.967   0.313  1.00  0.00     0.083 HD  
ENDROOT
BRANCH   1   7
ATOM     7   C5  UNL     1      -1.577  -1.476  -0.808  1.00  0.00     0.120 C   
BRANCH   7   8
ATOM     8   C2  UNL     1      -2.036  -2.687  -1.693  1.00  0.00     0.010 C   
ATOM     9   C1  UNL     1      -2.086  -2.346  -3.196  1.00  0.00     0.017 C   
ATOM     10  C3  UNL     1      -1.071  -3.880  -1.504  1.00  0.00     0.017 C   
ATOM     11  C4  UNL     1      -3.438  -3.166  -1.249  1.00  0.00     0.017 C   
ENDBRANCH   7   8
BRANCH   7  12
ATOM     12  N1  UNL     1      -2.515  -0.295  -1.000  1.00  0.00     0.250 N   
ATOM     13  H11 UNL     1      -3.328  -0.545  -1.566  1.00  0.00     0.199 HD  
ATOM     14  H12 UNL     1      -1.992   0.385  -1.577  1.00  0.00     0.199 HD  
BRANCH  12  15
ATOM     15  C6  UNL     1      -2.975   0.395   0.235  1.00  0.00     0.164 C   
BRANCH  15  16
ATOM     16  C7  UNL     1      -1.878   1.040   1.036  1.00  0.00    -0.002 A   
ATOM     17  C8  UNL     1      -1.149   2.137   0.515  1.00  0.00     0.012 A   
ATOM     18  C12 UNL     1      -1.576   0.560   2.322  1.00  0.00     0.045 A   
ATOM     19  C9  UNL     1      -0.137   2.749   1.265  1.00  0.00     0.037 A   
ATOM     20  C11 UNL     1      -0.580   1.191   3.038  1.00  0.00     0.109 A   
ATOM     21  C10 UNL     1       0.117   2.255   2.525  1.00  0.00     0.108 A   
ATOM     22  O1  UNL     1      -0.182   0.866   4.296  1.00  0.00    -0.316 OA  
ATOM     23  O2  UNL     1       1.040   2.739   3.397  1.00  0.00    -0.316 OA  
ATOM     24  C13 UNL     1       0.820   1.877   4.535  1.00  0.00     0.337 C   
ENDBRANCH  15  16
ENDBRANCH  12  15
ENDBRANCH   7  12
ENDBRANCH   1   7
BRANCH   3  25
ATOM     25  C16 UNL     1       3.347  -0.353  -0.898  1.00  0.00     0.172 C   
BRANCH  25  26
ATOM     26  C17 UNL     1       3.680   0.946  -0.227  1.00  0.00     0.008 A   
ATOM     27  C18 UNL     1       4.031   2.047  -1.001  1.00  0.00     0.118 A   
ATOM     28  C21 UNL     1       3.627   1.148   1.154  1.00  0.00     0.048 A   
ATOM     29  N3  UNL     1       4.324   3.264  -0.498  1.00  0.00    -0.264 NA  
ATOM     30  C20 UNL     1       3.930   2.390   1.702  1.00  0.00     0.041 A   
ATOM     31  C19 UNL     1       4.269   3.412   0.841  1.00  0.00     0.112 A   
ATOM     32  CL1 UNL     1       3.181  -0.120   2.237  1.00  0.00    -0.084 Cl  
ENDBRANCH  25  26
ENDBRANCH   3  25
TORSDOF 7
