REMARK SMILES COc1ccc(Cn2cc([C@@H]([NH2+]Cc3ccc4c(c3)OCO4)C(C)(C)C)nn2)cc1F
REMARK SMILES IDX 8 1 9 2 10 3 27 4 28 5 7 7 6 8 3 9 4 10 30 11 5 12 29 13
REMARK SMILES IDX 31 14 2 15 1 16 11 17 12 18 13 21 14 22 15 23 19 24 16 25
REMARK SMILES IDX 18 26 17 27 20 28 22 29 21 30 23 31 24 32 25 33 26 34
REMARK H PARENT 9 6 12 19 12 20
ROOT
ATOM     1   N1  UNL     1       2.225   0.753  -1.933  1.00  0.00    -0.208 N   
ATOM     2   C7  UNL     1       0.872   0.853  -2.099  1.00  0.00     0.046 A   
ATOM     3   C8  UNL     1       0.507   1.880  -1.256  1.00  0.00     0.127 A   
ATOM     4   N3  UNL     1       1.629   2.383  -0.650  1.00  0.00    -0.132 NA  
ATOM     5   N4  UNL     1       2.672   1.685  -1.069  1.00  0.00    -0.076 NA  
ATOM     6   H8  UNL     1       0.311   0.177  -2.731  1.00  0.00     0.083 HD  
ENDROOT
BRANCH   1   7
ATOM     7   C6  UNL     1       3.118  -0.264  -2.463  1.00  0.00     0.169 C   
BRANCH   7   8
ATOM     8   C5  UNL     1       3.057  -1.502  -1.602  1.00  0.00    -0.025 A   
ATOM     9   C2  UNL     1       2.861  -3.751   0.101  1.00  0.00     0.110 A   
ATOM     10  C3  UNL     1       3.820  -2.766   0.341  1.00  0.00     0.037 A   
ATOM     11  C23 UNL     1       2.006  -3.597  -0.994  1.00  0.00     0.153 A   
ATOM     12  C4  UNL     1       3.913  -1.649  -0.500  1.00  0.00     0.008 A   
ATOM     13  C22 UNL     1       2.101  -2.497  -1.844  1.00  0.00     0.047 A   
ATOM     14  F1  UNL     1       1.053  -4.508  -1.242  1.00  0.00    -0.204 F   
BRANCH   9  15
ATOM     15  O1  UNL     1       2.656  -4.865   0.865  1.00  0.00    -0.346 OA  
ATOM     16  C1  UNL     1       3.637  -5.167   1.849  1.00  0.00     0.203 C   
ENDBRANCH   9  15
ENDBRANCH   7   8
ENDBRANCH   1   7
BRANCH   3  17
ATOM     17  C9  UNL     1      -0.848   2.379  -0.861  1.00  0.00     0.120 C   
BRANCH  17  18
ATOM     18  N2  UNL     1      -0.902   2.592   0.641  1.00  0.00     0.250 N   
ATOM     19  H10 UNL     1      -0.180   3.288   0.868  1.00  0.00     0.199 HD  
ATOM     20  H11 UNL     1      -1.806   2.982   0.915  1.00  0.00     0.199 HD  
BRANCH  18  21
ATOM     21  C10 UNL     1      -0.623   1.399   1.505  1.00  0.00     0.164 C   
BRANCH  21  22
ATOM     22  C11 UNL     1      -1.504   0.215   1.217  1.00  0.00    -0.002 A   
ATOM     23  C12 UNL     1      -0.939  -0.980   0.707  1.00  0.00     0.012 A   
ATOM     24  C16 UNL     1      -2.891   0.287   1.433  1.00  0.00     0.045 A   
ATOM     25  C13 UNL     1      -1.742  -2.083   0.399  1.00  0.00     0.037 A   
ATOM     26  C15 UNL     1      -3.654  -0.819   1.116  1.00  0.00     0.109 A   
ATOM     27  C14 UNL     1      -3.098  -1.969   0.612  1.00  0.00     0.108 A   
ATOM     28  O2  UNL     1      -5.003  -0.910   1.252  1.00  0.00    -0.316 OA  
ATOM     29  O3  UNL     1      -4.027  -2.929   0.368  1.00  0.00    -0.316 OA  
ATOM     30  C17 UNL     1      -5.232  -2.268   0.810  1.00  0.00     0.337 C   
ENDBRANCH  21  22
ENDBRANCH  18  21
ENDBRANCH  17  18
BRANCH  17  31
ATOM     31  C18 UNL     1      -1.299   3.680  -1.615  1.00  0.00     0.010 C   
ATOM     32  C19 UNL     1      -1.267   3.442  -3.143  1.00  0.00     0.017 C   
ATOM     33  C20 UNL     1      -0.411   4.900  -1.299  1.00  0.00     0.017 C   
ATOM     34  C21 UNL     1      -2.757   4.038  -1.245  1.00  0.00     0.017 C   
ENDBRANCH  17  31
ENDBRANCH   3  17
TORSDOF 8
