REMARK SMILES Cc1cccc(F)c1Cn1cc([C@@H]([NH2+]Cc2ccc3c(c2)OCO3)C(C)C)nn1
REMARK SMILES IDX 10 1 11 2 12 3 28 4 29 5 9 7 8 8 2 9 3 10 4 11 6 12 5 13
REMARK SMILES IDX 1 14 7 15 13 16 14 17 15 20 16 21 17 22 21 23 18 24 20 25
REMARK SMILES IDX 19 26 22 27 24 28 23 29 25 30 26 31 27 32
REMARK H PARENT 11 6 14 18 14 19
ROOT
ATOM     1   N1  UNL     1       2.783  -0.059  -0.655  1.00  0.00    -0.208 N   
ATOM     2   C9  UNL     1       2.021   0.521  -1.633  1.00  0.00     0.046 A   
ATOM     3   C10 UNL     1       1.085   1.254  -0.939  1.00  0.00     0.127 A   
ATOM     4   N3  UNL     1       1.305   1.102   0.407  1.00  0.00    -0.132 NA  
ATOM     5   N4  UNL     1       2.346   0.303   0.567  1.00  0.00    -0.076 NA  
ATOM     6   H9  UNL     1       2.206   0.352  -2.685  1.00  0.00     0.083 HD  
ENDROOT
BRANCH   1   7
ATOM     7   C8  UNL     1       3.938  -0.929  -0.809  1.00  0.00     0.172 C   
BRANCH   7   8
ATOM     8   C7  UNL     1       3.528  -2.376  -0.907  1.00  0.00     0.010 A   
ATOM     9   C2  UNL     1       3.546  -3.259   0.193  1.00  0.00    -0.043 A   
ATOM     10  C3  UNL     1       3.141  -4.593   0.006  1.00  0.00     0.004 A   
ATOM     11  C4  UNL     1       2.719  -5.052  -1.243  1.00  0.00     0.003 A   
ATOM     12  C6  UNL     1       3.094  -2.862  -2.150  1.00  0.00     0.128 A   
ATOM     13  C5  UNL     1       2.695  -4.182  -2.326  1.00  0.00     0.039 A   
ATOM     14  C1  UNL     1       3.998  -2.826   1.562  1.00  0.00     0.045 C   
ATOM     15  F1  UNL     1       3.052  -2.033  -3.204  1.00  0.00    -0.207 F   
ENDBRANCH   7   8
ENDBRANCH   1   7
BRANCH   3  16
ATOM     16  C11 UNL     1      -0.079   2.067  -1.403  1.00  0.00     0.117 C   
BRANCH  16  17
ATOM     17  N2  UNL     1      -1.190   1.996  -0.382  1.00  0.00     0.249 N   
ATOM     18  H11 UNL     1      -1.856   2.766  -0.492  1.00  0.00     0.199 HD  
ATOM     19  H12 UNL     1      -0.749   2.119   0.542  1.00  0.00     0.199 HD  
BRANCH  17  20
ATOM     20  C12 UNL     1      -1.932   0.705  -0.341  1.00  0.00     0.164 C   
BRANCH  20  21
ATOM     21  C13 UNL     1      -2.949   0.721   0.765  1.00  0.00    -0.002 A   
ATOM     22  C14 UNL     1      -4.288   1.097   0.505  1.00  0.00     0.012 A   
ATOM     23  C18 UNL     1      -2.558   0.413   2.080  1.00  0.00     0.045 A   
ATOM     24  C15 UNL     1      -5.231   1.155   1.537  1.00  0.00     0.037 A   
ATOM     25  C17 UNL     1      -3.512   0.481   3.074  1.00  0.00     0.109 A   
ATOM     26  C16 UNL     1      -4.810   0.841   2.811  1.00  0.00     0.108 A   
ATOM     27  O1  UNL     1      -3.303   0.216   4.390  1.00  0.00    -0.316 OA  
ATOM     28  O2  UNL     1      -5.583   0.846   3.928  1.00  0.00    -0.316 OA  
ATOM     29  C19 UNL     1      -4.628   0.428   4.927  1.00  0.00     0.337 C   
ENDBRANCH  20  21
ENDBRANCH  17  20
ENDBRANCH  16  17
BRANCH  16  30
ATOM     30  C20 UNL     1       0.249   3.560  -1.664  1.00  0.00     0.037 C   
ATOM     31  C21 UNL     1       1.219   3.729  -2.839  1.00  0.00     0.014 C   
ATOM     32  C22 UNL     1       0.784   4.310  -0.439  1.00  0.00     0.014 C   
ENDBRANCH  16  30
ENDBRANCH   3  16
TORSDOF 7
