REMARK SMILES Cc1ccc(N)cc1-n1cc([C@H](CC(C)C)[NH2+]Cc2ccc3c(c2)OCO3)nn1
REMARK SMILES IDX 9 1 10 2 11 3 28 4 29 5 8 6 2 7 3 8 4 9 7 10 5 11 1 12 6 13
REMARK SMILES IDX 12 16 13 17 14 18 15 19 16 20 17 21 18 24 19 25 20 26 24 27
REMARK SMILES IDX 21 28 23 29 22 30 25 31 27 32 26 33
REMARK H PARENT 6 14 6 15 17 22 17 23
ROOT
ATOM     1   N2  UNL     1      -1.667   1.561   1.012  1.00  0.00    -0.180 N   
ATOM     2   C8  UNL     1      -0.799   0.557   0.608  1.00  0.00     0.135 A   
ATOM     3   C9  UNL     1      -0.359   0.930  -0.641  1.00  0.00     0.127 A   
ATOM     4   N4  UNL     1      -0.963   2.099  -0.992  1.00  0.00    -0.131 NA  
ATOM     5   N5  UNL     1      -1.760   2.458  -0.003  1.00  0.00    -0.071 NA  
ENDROOT
BRANCH   1   6
ATOM     6   C7  UNL     1      -2.382   1.684   2.242  1.00  0.00     0.062 A   
ATOM     7   C2  UNL     1      -3.264   2.758   2.510  1.00  0.00    -0.027 A   
ATOM     8   C3  UNL     1      -3.889   2.811   3.771  1.00  0.00     0.007 A   
ATOM     9   C4  UNL     1      -3.669   1.829   4.736  1.00  0.00     0.023 A   
ATOM     10  C6  UNL     1      -2.181   0.700   3.236  1.00  0.00     0.049 A   
ATOM     11  C5  UNL     1      -2.856   0.737   4.460  1.00  0.00     0.025 A   
ATOM     12  C1  UNL     1      -3.576   3.883   1.557  1.00  0.00     0.046 C   
BRANCH  11  13
ATOM     13  N1  UNL     1      -2.539  -0.177   5.469  1.00  0.00    -0.358 N   
ATOM     14  H6  UNL     1      -2.243  -1.092   5.149  1.00  0.00     0.143 HD  
ATOM     15  H7  UNL     1      -3.237  -0.241   6.206  1.00  0.00     0.143 HD  
ENDBRANCH  11  13
ENDBRANCH   1   6
BRANCH   3  16
ATOM     16  C10 UNL     1       0.570   0.265  -1.603  1.00  0.00     0.114 C   
BRANCH  16  17
ATOM     17  C11 UNL     1       2.013   0.797  -1.496  1.00  0.00     0.064 C   
BRANCH  17  18
ATOM     18  C12 UNL     1       2.718   0.530  -0.148  1.00  0.00    -0.012 C   
ATOM     19  C13 UNL     1       2.830  -0.963   0.167  1.00  0.00     0.007 C   
ATOM     20  C14 UNL     1       4.115   1.158  -0.164  1.00  0.00     0.007 C   
ENDBRANCH  17  18
ENDBRANCH  16  17
BRANCH  16  21
ATOM     21  N3  UNL     1       0.117   0.525  -3.028  1.00  0.00     0.249 N   
ATOM     22  H20 UNL     1      -0.021   1.543  -3.107  1.00  0.00     0.199 HD  
ATOM     23  H21 UNL     1       0.859   0.268  -3.686  1.00  0.00     0.199 HD  
BRANCH  21  24
ATOM     24  C15 UNL     1      -1.157  -0.130  -3.451  1.00  0.00     0.164 C   
BRANCH  24  25
ATOM     25  C16 UNL     1      -1.055  -1.629  -3.500  1.00  0.00    -0.002 A   
ATOM     26  C17 UNL     1      -1.703  -2.421  -2.522  1.00  0.00     0.012 A   
ATOM     27  C21 UNL     1      -0.288  -2.254  -4.499  1.00  0.00     0.045 A   
ATOM     28  C18 UNL     1      -1.585  -3.815  -2.531  1.00  0.00     0.037 A   
ATOM     29  C20 UNL     1      -0.192  -3.630  -4.479  1.00  0.00     0.109 A   
ATOM     30  C19 UNL     1      -0.819  -4.389  -3.522  1.00  0.00     0.108 A   
ATOM     31  O1  UNL     1       0.510  -4.384  -5.364  1.00  0.00    -0.316 OA  
ATOM     32  O2  UNL     1      -0.590  -5.718  -3.682  1.00  0.00    -0.316 OA  
ATOM     33  C22 UNL     1       0.230  -5.716  -4.872  1.00  0.00     0.337 C   
ENDBRANCH  24  25
ENDBRANCH  21  24
ENDBRANCH  16  21
ENDBRANCH   3  16
TORSDOF 8
