REMARK SMILES CS(=O)(=O)c1ccc(-n2cc([C@@H]([NH2+]Cc3ccc4c(c3)OCO4)C3CCCC3)nn2)cc1
REMARK SMILES IDX 9 1 10 2 11 3 29 4 30 5 8 6 5 7 6 8 32 9 7 10 31 11 2 12
REMARK SMILES IDX 1 13 3 14 4 15 12 16 13 17 14 20 15 21 16 22 20 23 17 24
REMARK SMILES IDX 19 25 18 26 21 27 23 28 22 29 24 30 25 31 28 32 26 33 27 34
REMARK H PARENT 13 18 13 19
ROOT
ATOM     1   N1  UNL     1       1.793   0.567   1.772  1.00  0.00    -0.181 N   
ATOM     2   C6  UNL     1       1.840   0.134   0.460  1.00  0.00     0.135 A   
ATOM     3   C7  UNL     1       0.525   0.075   0.054  1.00  0.00     0.127 A   
ATOM     4   N3  UNL     1      -0.278   0.462   1.089  1.00  0.00    -0.131 NA  
ATOM     5   N4  UNL     1       0.494   0.748   2.123  1.00  0.00    -0.071 NA  
ENDROOT
BRANCH   1   6
ATOM     6   C5  UNL     1       2.857   0.787   2.683  1.00  0.00     0.058 A   
ATOM     7   C2  UNL     1       4.920   1.182   4.528  1.00  0.00     0.306 A   
ATOM     8   C3  UNL     1       5.224   0.797   3.220  1.00  0.00     0.136 A   
ATOM     9   C23 UNL     1       3.595   1.365   4.928  1.00  0.00     0.136 A   
ATOM     10  C4  UNL     1       4.193   0.603   2.295  1.00  0.00     0.038 A   
ATOM     11  C22 UNL     1       2.564   1.175   4.003  1.00  0.00     0.038 A   
BRANCH   7  12
ATOM     12  S1  UNL     1       6.226   1.353   5.726  1.00  0.00    -0.239 S   
ATOM     13  C1  UNL     1       6.547   3.097   5.747  1.00  0.00     0.674 C   
ATOM     14  O1  UNL     1       5.673   0.971   7.010  1.00  0.00    -0.517 OA  
ATOM     15  O2  UNL     1       7.393   0.684   5.185  1.00  0.00    -0.517 OA  
ENDBRANCH   7  12
ENDBRANCH   1   6
BRANCH   3  16
ATOM     16  C8  UNL     1      -0.097  -0.348  -1.239  1.00  0.00     0.117 C   
BRANCH  16  17
ATOM     17  N2  UNL     1      -1.511  -0.813  -1.010  1.00  0.00     0.249 N   
ATOM     18  H8  UNL     1      -1.935  -0.161  -0.333  1.00  0.00     0.199 HD  
ATOM     19  H9  UNL     1      -2.084  -0.750  -1.858  1.00  0.00     0.199 HD  
BRANCH  17  20
ATOM     20  C9  UNL     1      -1.647  -2.180  -0.435  1.00  0.00     0.164 C   
BRANCH  20  21
ATOM     21  C10 UNL     1      -3.094  -2.513  -0.209  1.00  0.00    -0.002 A   
ATOM     22  C11 UNL     1      -3.823  -3.239  -1.178  1.00  0.00     0.012 A   
ATOM     23  C15 UNL     1      -3.745  -2.056   0.951  1.00  0.00     0.045 A   
ATOM     24  C12 UNL     1      -5.181  -3.519  -0.994  1.00  0.00     0.037 A   
ATOM     25  C14 UNL     1      -5.085  -2.349   1.100  1.00  0.00     0.109 A   
ATOM     26  C13 UNL     1      -5.783  -3.059   0.156  1.00  0.00     0.108 A   
ATOM     27  O3  UNL     1      -5.860  -1.986   2.154  1.00  0.00    -0.316 OA  
ATOM     28  O4  UNL     1      -7.085  -3.236   0.497  1.00  0.00    -0.316 OA  
ATOM     29  C16 UNL     1      -7.125  -2.576   1.781  1.00  0.00     0.337 C   
ENDBRANCH  20  21
ENDBRANCH  17  20
ENDBRANCH  16  17
BRANCH  16  30
ATOM     30  C17 UNL     1      -0.070   0.782  -2.287  1.00  0.00     0.043 C   
ATOM     31  C18 UNL     1      -0.493   0.342  -3.703  1.00  0.00     0.010 C   
ATOM     32  C21 UNL     1      -0.940   2.007  -1.976  1.00  0.00     0.010 C   
ATOM     33  C19 UNL     1      -1.401   1.446  -4.241  1.00  0.00     0.001 C   
ATOM     34  C20 UNL     1      -1.145   2.644  -3.342  1.00  0.00     0.001 C   
ENDBRANCH  16  30
ENDBRANCH   3  16
TORSDOF 7
