REMARK SMILES CC(=O)c1cccc(-n2cc([C@H](CC(C)C)[NH2+]Cc3ccc4c(c3)OCO4)nn2)c1
REMARK SMILES IDX 9 1 10 2 11 3 28 4 29 5 8 6 4 7 5 8 30 9 6 10 7 11 2 12 1 13
REMARK SMILES IDX 3 14 12 15 13 16 14 17 15 18 16 19 17 20 18 23 19 24 20 25
REMARK SMILES IDX 24 26 21 27 23 28 22 29 25 30 27 31 26 32
REMARK H PARENT 17 21 17 22
ROOT
ATOM     1   N1  UNL     1       0.747  -1.516  -1.717  1.00  0.00    -0.181 N   
ATOM     2   C8  UNL     1       1.029  -1.588  -0.366  1.00  0.00     0.135 A   
ATOM     3   C9  UNL     1       1.221  -0.284   0.034  1.00  0.00     0.127 A   
ATOM     4   N3  UNL     1       1.085   0.536  -1.052  1.00  0.00    -0.131 NA  
ATOM     5   N4  UNL     1       0.794  -0.214  -2.101  1.00  0.00    -0.071 NA  
ENDROOT
BRANCH   1   6
ATOM     6   C7  UNL     1       0.451  -2.561  -2.627  1.00  0.00     0.058 A   
ATOM     7   C3  UNL     1       0.108  -4.925  -3.107  1.00  0.00     0.019 A   
ATOM     8   C4  UNL     1      -0.143  -4.614  -4.447  1.00  0.00     0.012 A   
ATOM     9   C23 UNL     1       0.405  -3.894  -2.199  1.00  0.00     0.037 A   
ATOM     10  C5  UNL     1      -0.098  -3.286  -4.875  1.00  0.00     0.003 A   
ATOM     11  C6  UNL     1       0.197  -2.261  -3.973  1.00  0.00     0.026 A   
BRANCH   7  12
ATOM     12  C2  UNL     1       0.074  -6.325  -2.588  1.00  0.00     0.159 C   
ATOM     13  C1  UNL     1      -0.247  -7.452  -3.533  1.00  0.00     0.093 C   
ATOM     14  O1  UNL     1       0.309  -6.528  -1.398  1.00  0.00    -0.295 OA  
ENDBRANCH   7  12
ENDBRANCH   1   6
BRANCH   3  15
ATOM     15  C10 UNL     1       1.569   0.305   1.364  1.00  0.00     0.114 C   
BRANCH  15  16
ATOM     16  C11 UNL     1       0.643  -0.134   2.516  1.00  0.00     0.064 C   
BRANCH  16  17
ATOM     17  C12 UNL     1      -0.747   0.532   2.640  1.00  0.00    -0.012 C   
ATOM     18  C13 UNL     1      -1.645   0.309   1.424  1.00  0.00     0.007 C   
ATOM     19  C14 UNL     1      -1.452   0.002   3.894  1.00  0.00     0.007 C   
ENDBRANCH  16  17
ENDBRANCH  15  16
BRANCH  15  20
ATOM     20  N2  UNL     1       1.640   1.801   1.263  1.00  0.00     0.249 N   
ATOM     21  H18 UNL     1       0.697   2.187   1.135  1.00  0.00     0.199 HD  
ATOM     22  H19 UNL     1       2.095   2.016   0.362  1.00  0.00     0.199 HD  
BRANCH  20  23
ATOM     23  C15 UNL     1       2.360   2.523   2.338  1.00  0.00     0.164 C   
BRANCH  23  24
ATOM     24  C16 UNL     1       2.349   4.002   2.079  1.00  0.00    -0.002 A   
ATOM     25  C17 UNL     1       3.383   4.606   1.325  1.00  0.00     0.012 A   
ATOM     26  C21 UNL     1       1.277   4.788   2.539  1.00  0.00     0.045 A   
ATOM     27  C18 UNL     1       3.359   5.976   1.041  1.00  0.00     0.037 A   
ATOM     28  C20 UNL     1       1.285   6.135   2.241  1.00  0.00     0.109 A   
ATOM     29  C19 UNL     1       2.296   6.713   1.514  1.00  0.00     0.108 A   
ATOM     30  O2  UNL     1       0.331   7.030   2.608  1.00  0.00    -0.316 OA  
ATOM     31  O3  UNL     1       2.107   8.046   1.333  1.00  0.00    -0.316 OA  
ATOM     32  C22 UNL     1       0.867   8.249   2.043  1.00  0.00     0.337 C   
ENDBRANCH  23  24
ENDBRANCH  20  23
ENDBRANCH  15  20
ENDBRANCH   3  15
TORSDOF 8
