REMARK SMILES Cc1c(F)cccc1[C@@H](CO)n1cc([C@@H]([NH2+]Cc2ccc3c(c2)OCO3)C2CCCCC2)nn1
REMARK SMILES IDX 12 1 13 2 14 3 33 4 34 5 9 7 8 8 2 9 3 10 5 11 7 12 6 13
REMARK SMILES IDX 1 14 4 15 10 16 11 17 15 19 16 20 17 23 18 24 19 25 23 26
REMARK SMILES IDX 20 27 22 28 21 29 24 30 26 31 25 32 27 33 28 34 32 35 29 36
REMARK SMILES IDX 31 37 30 38
REMARK H PARENT 13 6 11 18 16 21 16 22
ROOT
ATOM     1   N1  UNL     1      -0.501   1.441  -1.553  1.00  0.00    -0.202 N   
ATOM     2   C10 UNL     1      -0.076   0.194  -1.177  1.00  0.00     0.046 A   
ATOM     3   C11 UNL     1       0.661   0.418  -0.036  1.00  0.00     0.127 A   
ATOM     4   N3  UNL     1       0.709   1.767   0.208  1.00  0.00    -0.132 NA  
ATOM     5   N4  UNL     1       0.008   2.383  -0.730  1.00  0.00    -0.075 NA  
ATOM     6   H11 UNL     1      -0.363  -0.699  -1.714  1.00  0.00     0.083 HD  
ENDROOT
BRANCH   1   7
ATOM     7   C8  UNL     1      -1.388   1.777  -2.668  1.00  0.00     0.155 C   
BRANCH   7   8
ATOM     8   C7  UNL     1      -2.848   1.623  -2.233  1.00  0.00    -0.017 A   
ATOM     9   C2  UNL     1      -3.715   0.677  -2.832  1.00  0.00    -0.010 A   
ATOM     10  C3  UNL     1      -5.039   0.587  -2.374  1.00  0.00     0.126 A   
ATOM     11  C4  UNL     1      -5.522   1.400  -1.355  1.00  0.00     0.039 A   
ATOM     12  C6  UNL     1      -3.358   2.447  -1.202  1.00  0.00     0.006 A   
ATOM     13  C5  UNL     1      -4.679   2.334  -0.765  1.00  0.00     0.003 A   
ATOM     14  C1  UNL     1      -3.274  -0.241  -3.939  1.00  0.00     0.048 C   
ATOM     15  F1  UNL     1      -5.876  -0.301  -2.928  1.00  0.00    -0.207 F   
ENDBRANCH   7   8
BRANCH   7  16
ATOM     16  C9  UNL     1      -1.082   3.153  -3.291  1.00  0.00     0.185 C   
BRANCH  16  17
ATOM     17  O1  UNL     1      -1.585   3.204  -4.628  1.00  0.00    -0.394 OA  
ATOM     18  H10 UNL     1      -1.510   4.126  -4.937  1.00  0.00     0.210 HD  
ENDBRANCH  16  17
ENDBRANCH   7  16
ENDBRANCH   1   7
BRANCH   3  19
ATOM     19  C12 UNL     1       1.379  -0.528   0.872  1.00  0.00     0.117 C   
BRANCH  19  20
ATOM     20  N2  UNL     1       2.565   0.156   1.523  1.00  0.00     0.249 N   
ATOM     21  H13 UNL     1       2.215   1.046   1.902  1.00  0.00     0.199 HD  
ATOM     22  H14 UNL     1       2.906  -0.401   2.312  1.00  0.00     0.199 HD  
BRANCH  20  23
ATOM     23  C13 UNL     1       3.713   0.490   0.627  1.00  0.00     0.164 C   
BRANCH  23  24
ATOM     24  C14 UNL     1       4.376  -0.722   0.034  1.00  0.00    -0.002 A   
ATOM     25  C15 UNL     1       4.285  -0.971  -1.357  1.00  0.00     0.012 A   
ATOM     26  C19 UNL     1       5.072  -1.628   0.854  1.00  0.00     0.045 A   
ATOM     27  C16 UNL     1       4.869  -2.108  -1.925  1.00  0.00     0.037 A   
ATOM     28  C18 UNL     1       5.633  -2.741   0.262  1.00  0.00     0.109 A   
ATOM     29  C17 UNL     1       5.535  -2.975  -1.088  1.00  0.00     0.108 A   
ATOM     30  O2  UNL     1       6.323  -3.718   0.909  1.00  0.00    -0.316 OA  
ATOM     31  O3  UNL     1       6.154  -4.125  -1.461  1.00  0.00    -0.316 OA  
ATOM     32  C20 UNL     1       6.690  -4.574  -0.197  1.00  0.00     0.337 C   
ENDBRANCH  23  24
ENDBRANCH  20  23
ENDBRANCH  19  20
BRANCH  19  33
ATOM     33  C21 UNL     1       0.490  -1.125   1.999  1.00  0.00     0.043 C   
ATOM     34  C22 UNL     1      -0.137  -0.075   2.937  1.00  0.00     0.010 C   
ATOM     35  C26 UNL     1      -0.606  -2.049   1.429  1.00  0.00     0.010 C   
ATOM     36  C23 UNL     1      -0.968  -0.730   4.041  1.00  0.00     0.001 C   
ATOM     37  C25 UNL     1      -1.428  -2.702   2.539  1.00  0.00     0.001 C   
ATOM     38  C24 UNL     1      -2.035  -1.659   3.472  1.00  0.00     0.000 C   
ENDBRANCH  19  33
ENDBRANCH   3  19
TORSDOF 9
