REMARK SMILES CC(C)(C)[C@H]([NH2+]Cc1ccc2c(c1)OCO2)c1cn(Cc2c[nH]nc2C(F)(F)F)nn1
REMARK SMILES IDX 17 1 18 2 19 3 30 4 31 5 5 7 2 8 1 9 3 10 4 11 6 12 7 15
REMARK SMILES IDX 8 16 9 17 13 18 10 19 12 20 11 21 14 22 16 23 15 24 20 25
REMARK SMILES IDX 21 26 22 27 25 28 23 29 24 30 26 32 27 33 28 34 29 35
REMARK H PARENT 18 6 6 13 6 14 23 31
ROOT
ATOM     1   C14 UNL     1      -0.420  -1.285   0.092  1.00  0.00     0.127 A   
ATOM     2   C15 UNL     1      -0.301  -1.899   1.320  1.00  0.00     0.046 A   
ATOM     3   N2  UNL     1       1.027  -2.220   1.401  1.00  0.00    -0.208 N   
ATOM     4   N5  UNL     1       1.673  -1.871   0.273  1.00  0.00    -0.076 NA  
ATOM     5   N6  UNL     1       0.801  -1.287  -0.531  1.00  0.00    -0.132 NA  
ATOM     6   H20 UNL     1      -0.995  -2.084   2.128  1.00  0.00     0.083 HD  
ENDROOT
BRANCH   1   7
ATOM     7   C5  UNL     1      -1.573  -0.575  -0.551  1.00  0.00     0.120 C   
BRANCH   7   8
ATOM     8   C2  UNL     1      -2.388  -1.452  -1.564  1.00  0.00     0.010 C   
ATOM     9   C1  UNL     1      -3.645  -0.688  -2.043  1.00  0.00     0.017 C   
ATOM     10  C3  UNL     1      -2.884  -2.742  -0.871  1.00  0.00     0.017 C   
ATOM     11  C4  UNL     1      -1.565  -1.853  -2.804  1.00  0.00     0.017 C   
ENDBRANCH   7   8
BRANCH   7  12
ATOM     12  N1  UNL     1      -1.050   0.669  -1.230  1.00  0.00     0.250 N   
ATOM     13  H11 UNL     1      -0.203   0.390  -1.749  1.00  0.00     0.199 HD  
ATOM     14  H12 UNL     1      -1.701   1.040  -1.926  1.00  0.00     0.199 HD  
BRANCH  12  15
ATOM     15  C6  UNL     1      -0.649   1.776  -0.314  1.00  0.00     0.164 C   
BRANCH  15  16
ATOM     16  C7  UNL     1      -0.094   2.928  -1.102  1.00  0.00    -0.002 A   
ATOM     17  C8  UNL     1       1.298   3.014  -1.345  1.00  0.00     0.012 A   
ATOM     18  C12 UNL     1      -0.955   3.893  -1.652  1.00  0.00     0.045 A   
ATOM     19  C9  UNL     1       1.829   4.054  -2.115  1.00  0.00     0.037 A   
ATOM     20  C11 UNL     1      -0.399   4.902  -2.410  1.00  0.00     0.109 A   
ATOM     21  C10 UNL     1       0.954   4.982  -2.634  1.00  0.00     0.108 A   
ATOM     22  O1  UNL     1      -1.087   5.904  -3.019  1.00  0.00    -0.316 OA  
ATOM     23  O2  UNL     1       1.289   6.049  -3.405  1.00  0.00    -0.316 OA  
ATOM     24  C13 UNL     1      -0.007   6.641  -3.638  1.00  0.00     0.337 C   
ENDBRANCH  15  16
ENDBRANCH  12  15
ENDBRANCH   7  12
ENDBRANCH   1   7
BRANCH   3  25
ATOM     25  C16 UNL     1       1.748  -2.784   2.533  1.00  0.00     0.173 C   
BRANCH  25  26
ATOM     26  C17 UNL     1       2.680  -1.783   3.137  1.00  0.00     0.019 A   
ATOM     27  C18 UNL     1       4.056  -1.868   3.214  1.00  0.00     0.099 A   
ATOM     28  C19 UNL     1       2.367  -0.529   3.763  1.00  0.00     0.168 A   
ATOM     29  N3  UNL     1       4.487  -0.730   3.826  1.00  0.00    -0.245 N   
ATOM     30  N4  UNL     1       3.490   0.103   4.156  1.00  0.00    -0.179 NA  
ATOM     31  H24 UNL     1       5.442  -0.455   4.045  1.00  0.00     0.175 HD  
BRANCH  28  32
ATOM     32  C20 UNL     1       1.001   0.079   3.958  1.00  0.00     0.435 C   
ATOM     33  F1  UNL     1       0.568   0.719   2.830  1.00  0.00    -0.164 F   
ATOM     34  F2  UNL     1       0.065  -0.880   4.210  1.00  0.00    -0.164 F   
ATOM     35  F3  UNL     1       0.921   0.974   4.973  1.00  0.00    -0.164 F   
ENDBRANCH  28  32
ENDBRANCH  25  26
ENDBRANCH   3  25
TORSDOF 8
