REMARK SMILES COc1ccc(-n2cc([C@@H]([NH2+]Cc3ccc4c(c3)OCO4)C(C)C)nn2)cc1OC
REMARK SMILES IDX 7 1 8 2 9 3 25 4 26 5 6 6 3 7 4 8 28 9 5 10 27 11 2 12 1 13
REMARK SMILES IDX 29 14 30 15 10 16 11 17 12 20 13 21 14 22 18 23 15 24 17 25
REMARK SMILES IDX 16 26 19 27 21 28 20 29 22 30 23 31 24 32
REMARK H PARENT 11 18 11 19
ROOT
ATOM     1   N1  UNL     1       0.171   0.199   1.697  1.00  0.00    -0.181 N   
ATOM     2   C6  UNL     1      -0.005   0.874   0.505  1.00  0.00     0.135 A   
ATOM     3   C7  UNL     1      -1.099   0.283  -0.086  1.00  0.00     0.127 A   
ATOM     4   N3  UNL     1      -1.547  -0.728   0.717  1.00  0.00    -0.131 NA  
ATOM     5   N4  UNL     1      -0.763  -0.785   1.781  1.00  0.00    -0.071 NA  
ENDROOT
BRANCH   1   6
ATOM     6   C5  UNL     1       1.138   0.408   2.711  1.00  0.00     0.060 A   
ATOM     7   C2  UNL     1       3.029   0.814   4.750  1.00  0.00     0.105 A   
ATOM     8   C3  UNL     1       2.122  -0.246   4.830  1.00  0.00     0.038 A   
ATOM     9   C21 UNL     1       3.029   1.637   3.617  1.00  0.00     0.107 A   
ATOM     10  C4  UNL     1       1.176  -0.448   3.820  1.00  0.00     0.029 A   
ATOM     11  C20 UNL     1       2.065   1.453   2.616  1.00  0.00     0.062 A   
BRANCH   7  12
ATOM     12  O1  UNL     1       3.953   1.031   5.736  1.00  0.00    -0.347 OA  
ATOM     13  C1  UNL     1       3.384   1.101   7.042  1.00  0.00     0.203 C   
ENDBRANCH   7  12
BRANCH   9  14
ATOM     14  O4  UNL     1       3.871   2.700   3.401  1.00  0.00    -0.347 OA  
ATOM     15  C22 UNL     1       5.249   2.416   3.654  1.00  0.00     0.203 C   
ENDBRANCH   9  14
ENDBRANCH   1   6
BRANCH   3  16
ATOM     16  C8  UNL     1      -1.774   0.545  -1.394  1.00  0.00     0.117 C   
BRANCH  16  17
ATOM     17  N2  UNL     1      -2.410  -0.723  -1.930  1.00  0.00     0.249 N   
ATOM     18  H8  UNL     1      -2.967  -1.117  -1.160  1.00  0.00     0.199 HD  
ATOM     19  H9  UNL     1      -3.058  -0.500  -2.691  1.00  0.00     0.199 HD  
BRANCH  17  20
ATOM     20  C9  UNL     1      -1.477  -1.798  -2.382  1.00  0.00     0.164 C   
BRANCH  20  21
ATOM     21  C10 UNL     1      -0.659  -1.411  -3.581  1.00  0.00    -0.002 A   
ATOM     22  C11 UNL     1       0.740  -1.236  -3.458  1.00  0.00     0.012 A   
ATOM     23  C15 UNL     1      -1.274  -1.210  -4.830  1.00  0.00     0.045 A   
ATOM     24  C12 UNL     1       1.518  -0.864  -4.559  1.00  0.00     0.037 A   
ATOM     25  C14 UNL     1      -0.477  -0.842  -5.894  1.00  0.00     0.109 A   
ATOM     26  C13 UNL     1       0.879  -0.675  -5.764  1.00  0.00     0.108 A   
ATOM     27  O2  UNL     1      -0.909  -0.603  -7.161  1.00  0.00    -0.316 OA  
ATOM     28  O3  UNL     1       1.473  -0.317  -6.932  1.00  0.00    -0.316 OA  
ATOM     29  C16 UNL     1       0.338  -0.299  -7.826  1.00  0.00     0.337 C   
ENDBRANCH  20  21
ENDBRANCH  17  20
ENDBRANCH  16  17
BRANCH  16  30
ATOM     30  C17 UNL     1      -2.872   1.643  -1.332  1.00  0.00     0.037 C   
ATOM     31  C18 UNL     1      -2.281   3.020  -1.005  1.00  0.00     0.014 C   
ATOM     32  C19 UNL     1      -4.023   1.334  -0.363  1.00  0.00     0.014 C   
ENDBRANCH  16  30
ENDBRANCH   3  16
TORSDOF 8
