REMARK SMILES Cc1cc([C@@H](CO)n2cc([C@@H]([NH2+]Cc3ccc4c(c3)OCO4)C(C)(C)C)nn2)ccn1
REMARK SMILES IDX 8 1 9 2 10 3 27 4 28 5 5 7 4 8 2 9 3 10 31 11 30 12 29 13
REMARK SMILES IDX 1 14 6 15 7 16 11 18 12 19 13 22 14 23 15 24 19 25 16 26
REMARK SMILES IDX 18 27 17 28 20 29 22 30 21 31 23 32 24 33 25 34 26 35
REMARK H PARENT 9 6 7 17 12 20 12 21
ROOT
ATOM     1   N1  UNL     1      -0.867  -1.972  -1.816  1.00  0.00    -0.202 N   
ATOM     2   C7  UNL     1      -0.182  -0.796  -1.671  1.00  0.00     0.046 A   
ATOM     3   C8  UNL     1       1.087  -1.182  -1.307  1.00  0.00     0.127 A   
ATOM     4   N3  UNL     1       1.140  -2.550  -1.250  1.00  0.00    -0.132 NA  
ATOM     5   N4  UNL     1      -0.058  -3.022  -1.557  1.00  0.00    -0.075 NA  
ATOM     6   H9  UNL     1      -0.657   0.168  -1.800  1.00  0.00     0.083 HD  
ENDROOT
BRANCH   1   7
ATOM     7   C5  UNL     1      -2.299  -2.179  -2.029  1.00  0.00     0.155 C   
BRANCH   7   8
ATOM     8   C4  UNL     1      -3.071  -1.639  -0.831  1.00  0.00    -0.020 A   
ATOM     9   C2  UNL     1      -4.215   0.100   0.391  1.00  0.00     0.038 A   
ATOM     10  C3  UNL     1      -3.586  -0.339  -0.772  1.00  0.00     0.029 A   
ATOM     11  N5  UNL     1      -4.344  -0.680   1.486  1.00  0.00    -0.262 NA  
ATOM     12  C23 UNL     1      -3.864  -1.937   1.419  1.00  0.00     0.111 A   
ATOM     13  C22 UNL     1      -3.223  -2.451   0.304  1.00  0.00     0.026 A   
ATOM     14  C1  UNL     1      -4.770   1.491   0.470  1.00  0.00     0.067 C   
ENDBRANCH   7   8
BRANCH   7  15
ATOM     15  C6  UNL     1      -2.756  -1.720  -3.429  1.00  0.00     0.185 C   
BRANCH  15  16
ATOM     16  O1  UNL     1      -2.486  -0.345  -3.695  1.00  0.00    -0.394 OA  
ATOM     17  H8  UNL     1      -2.832  -0.156  -4.589  1.00  0.00     0.210 HD  
ENDBRANCH  15  16
ENDBRANCH   7  15
ENDBRANCH   1   7
BRANCH   3  18
ATOM     18  C9  UNL     1       2.264  -0.365  -0.877  1.00  0.00     0.120 C   
BRANCH  18  19
ATOM     19  N2  UNL     1       2.890  -1.000   0.351  1.00  0.00     0.250 N   
ATOM     20  H11 UNL     1       3.116  -1.970   0.095  1.00  0.00     0.199 HD  
ATOM     21  H12 UNL     1       3.765  -0.532   0.595  1.00  0.00     0.199 HD  
BRANCH  19  22
ATOM     22  C10 UNL     1       2.031  -1.066   1.578  1.00  0.00     0.164 C   
BRANCH  22  23
ATOM     23  C11 UNL     1       1.589   0.284   2.071  1.00  0.00    -0.002 A   
ATOM     24  C12 UNL     1       0.226   0.660   1.987  1.00  0.00     0.012 A   
ATOM     25  C16 UNL     1       2.525   1.194   2.590  1.00  0.00     0.045 A   
ATOM     26  C13 UNL     1      -0.198   1.927   2.399  1.00  0.00     0.037 A   
ATOM     27  C15 UNL     1       2.074   2.436   2.986  1.00  0.00     0.109 A   
ATOM     28  C14 UNL     1       0.752   2.795   2.892  1.00  0.00     0.108 A   
ATOM     29  O2  UNL     1       2.847   3.431   3.496  1.00  0.00    -0.316 OA  
ATOM     30  O3  UNL     1       0.527   4.062   3.328  1.00  0.00    -0.316 OA  
ATOM     31  C17 UNL     1       1.850   4.447   3.756  1.00  0.00     0.337 C   
ENDBRANCH  22  23
ENDBRANCH  19  22
ENDBRANCH  18  19
BRANCH  18  32
ATOM     32  C18 UNL     1       3.342  -0.148  -1.996  1.00  0.00     0.010 C   
ATOM     33  C19 UNL     1       4.007  -1.460  -2.456  1.00  0.00     0.017 C   
ATOM     34  C20 UNL     1       4.453   0.805  -1.497  1.00  0.00     0.017 C   
ATOM     35  C21 UNL     1       2.691   0.524  -3.227  1.00  0.00     0.017 C   
ENDBRANCH  18  32
ENDBRANCH   3  18
TORSDOF 9
