REMARK SMILES COc1ccc([C@H](O)Cn2cc([C@@H]([NH2+]Cc3ccc4c(c3)OCO4)C3CCCC3)nn2)cc1
REMARK SMILES IDX 10 1 11 2 12 3 30 4 31 5 9 7 7 8 6 9 3 10 4 11 33 12 5 13
REMARK SMILES IDX 32 14 2 15 1 16 8 17 13 19 14 20 15 23 16 24 17 25 21 26
REMARK SMILES IDX 18 27 20 28 19 29 22 30 24 31 23 32 25 33 26 34 29 35 27 36
REMARK SMILES IDX 28 37
REMARK H PARENT 11 6 8 18 14 21 14 22
ROOT
ATOM     1   N1  UNL     1      -2.287  -2.046   2.267  1.00  0.00    -0.209 N   
ATOM     2   C8  UNL     1      -2.635  -1.407   1.109  1.00  0.00     0.045 A   
ATOM     3   C9  UNL     1      -2.618  -0.070   1.445  1.00  0.00     0.127 A   
ATOM     4   N3  UNL     1      -2.300   0.048   2.776  1.00  0.00    -0.132 NA  
ATOM     5   N4  UNL     1      -2.106  -1.166   3.267  1.00  0.00    -0.076 NA  
ATOM     6   H10 UNL     1      -2.789  -1.941   0.182  1.00  0.00     0.083 HD  
ENDROOT
BRANCH   1   7
ATOM     7   C7  UNL     1      -1.976  -3.446   2.440  1.00  0.00     0.170 C   
BRANCH   7   8
ATOM     8   C6  UNL     1      -0.492  -3.710   2.730  1.00  0.00     0.164 C   
BRANCH   8   9
ATOM     9   C5  UNL     1       0.467  -3.014   1.781  1.00  0.00    -0.018 A   
ATOM     10  C2  UNL     1       2.203  -1.634   0.042  1.00  0.00     0.075 A   
ATOM     11  C3  UNL     1       1.269  -2.541  -0.461  1.00  0.00     0.034 A   
ATOM     12  C25 UNL     1       2.283  -1.427   1.419  1.00  0.00     0.034 A   
ATOM     13  C4  UNL     1       0.418  -3.239   0.399  1.00  0.00     0.009 A   
ATOM     14  C24 UNL     1       1.417  -2.110   2.281  1.00  0.00     0.009 A   
BRANCH  10  15
ATOM     15  O1  UNL     1       2.947  -0.984  -0.902  1.00  0.00    -0.349 OA  
ATOM     16  C1  UNL     1       4.169  -0.404  -0.452  1.00  0.00     0.203 C   
ENDBRANCH  10  15
ENDBRANCH   8   9
BRANCH   8  17
ATOM     17  O2  UNL     1      -0.260  -5.119   2.657  1.00  0.00    -0.387 OA  
ATOM     18  H7  UNL     1       0.704  -5.259   2.628  1.00  0.00     0.211 HD  
ENDBRANCH   8  17
ENDBRANCH   7   8
ENDBRANCH   1   7
BRANCH   3  19
ATOM     19  C10 UNL     1      -2.721   1.175   0.623  1.00  0.00     0.117 C   
BRANCH  19  20
ATOM     20  N2  UNL     1      -1.417   1.936   0.706  1.00  0.00     0.249 N   
ATOM     21  H12 UNL     1      -1.281   2.146   1.705  1.00  0.00     0.199 HD  
ATOM     22  H13 UNL     1      -1.487   2.845   0.237  1.00  0.00     0.199 HD  
BRANCH  20  23
ATOM     23  C11 UNL     1      -0.185   1.227   0.249  1.00  0.00     0.164 C   
BRANCH  23  24
ATOM     24  C12 UNL     1       1.013   2.130   0.347  1.00  0.00    -0.002 A   
ATOM     25  C13 UNL     1       1.599   2.409   1.607  1.00  0.00     0.012 A   
ATOM     26  C17 UNL     1       1.546   2.723  -0.810  1.00  0.00     0.045 A   
ATOM     27  C14 UNL     1       2.703   3.261   1.715  1.00  0.00     0.037 A   
ATOM     28  C16 UNL     1       2.636   3.557  -0.668  1.00  0.00     0.109 A   
ATOM     29  C15 UNL     1       3.198   3.820   0.558  1.00  0.00     0.108 A   
ATOM     30  O3  UNL     1       3.273   4.202  -1.681  1.00  0.00    -0.316 OA  
ATOM     31  O4  UNL     1       4.259   4.664   0.472  1.00  0.00    -0.316 OA  
ATOM     32  C18 UNL     1       4.315   4.893  -0.954  1.00  0.00     0.337 C   
ENDBRANCH  23  24
ENDBRANCH  20  23
ENDBRANCH  19  20
BRANCH  19  33
ATOM     33  C19 UNL     1      -3.141   0.974  -0.844  1.00  0.00     0.043 C   
ATOM     34  C20 UNL     1      -3.134   2.254  -1.688  1.00  0.00     0.010 C   
ATOM     35  C23 UNL     1      -4.600   0.523  -0.996  1.00  0.00     0.010 C   
ATOM     36  C21 UNL     1      -3.987   1.913  -2.905  1.00  0.00     0.001 C   
ATOM     37  C22 UNL     1      -4.934   0.801  -2.458  1.00  0.00     0.001 C   
ENDBRANCH  19  33
ENDBRANCH   3  19
TORSDOF 10
