REMARK SMILES COc1ccc([C@@H](O)Cn2cc([C@@H]([NH2+]Cc3ccc4c(c3)OCO4)C3CCCC3)nn2)cc1
REMARK SMILES IDX 10 1 11 2 12 3 30 4 31 5 9 7 7 8 6 9 3 10 4 11 33 12 5 13
REMARK SMILES IDX 32 14 2 15 1 16 8 17 13 19 14 20 15 23 16 24 17 25 21 26
REMARK SMILES IDX 18 27 20 28 19 29 22 30 24 31 23 32 25 33 26 34 29 35 27 36
REMARK SMILES IDX 28 37
REMARK H PARENT 11 6 8 18 14 21 14 22
ROOT
ATOM     1   N1  UNL     1      -1.389  -2.840   1.380  1.00  0.00    -0.209 N   
ATOM     2   C8  UNL     1      -0.175  -2.274   1.107  1.00  0.00     0.045 A   
ATOM     3   C9  UNL     1      -0.115  -1.197   1.962  1.00  0.00     0.127 A   
ATOM     4   N3  UNL     1      -1.226  -1.193   2.764  1.00  0.00    -0.132 NA  
ATOM     5   N4  UNL     1      -1.990  -2.211   2.409  1.00  0.00    -0.076 NA  
ATOM     6   H10 UNL     1       0.458  -2.626   0.303  1.00  0.00     0.083 HD  
ENDROOT
BRANCH   1   7
ATOM     7   C7  UNL     1      -2.092  -3.883   0.660  1.00  0.00     0.170 C   
BRANCH   7   8
ATOM     8   C6  UNL     1      -2.306  -3.583  -0.838  1.00  0.00     0.164 C   
BRANCH   8   9
ATOM     9   C5  UNL     1      -2.761  -2.169  -1.172  1.00  0.00    -0.018 A   
ATOM     10  C2  UNL     1      -3.579   0.478  -1.759  1.00  0.00     0.075 A   
ATOM     11  C3  UNL     1      -4.178  -0.237  -0.723  1.00  0.00     0.034 A   
ATOM     12  C25 UNL     1      -2.591  -0.136  -2.524  1.00  0.00     0.034 A   
ATOM     13  C4  UNL     1      -3.789  -1.551  -0.443  1.00  0.00     0.009 A   
ATOM     14  C24 UNL     1      -2.190  -1.447  -2.234  1.00  0.00     0.009 A   
BRANCH  10  15
ATOM     15  O1  UNL     1      -4.015   1.765  -1.901  1.00  0.00    -0.349 OA  
ATOM     16  C1  UNL     1      -3.713   2.403  -3.140  1.00  0.00     0.203 C   
ENDBRANCH  10  15
ENDBRANCH   8   9
BRANCH   8  17
ATOM     17  O2  UNL     1      -1.081  -3.884  -1.521  1.00  0.00    -0.387 OA  
ATOM     18  H7  UNL     1      -1.296  -4.523  -2.225  1.00  0.00     0.211 HD  
ENDBRANCH   8  17
ENDBRANCH   7   8
ENDBRANCH   1   7
BRANCH   3  19
ATOM     19  C10 UNL     1       0.834  -0.047   2.030  1.00  0.00     0.117 C   
BRANCH  19  20
ATOM     20  N2  UNL     1       0.039   1.243   1.999  1.00  0.00     0.249 N   
ATOM     21  H12 UNL     1       0.635   2.047   2.211  1.00  0.00     0.199 HD  
ATOM     22  H13 UNL     1      -0.657   1.163   2.753  1.00  0.00     0.199 HD  
BRANCH  20  23
ATOM     23  C11 UNL     1      -0.712   1.525   0.735  1.00  0.00     0.164 C   
BRANCH  23  24
ATOM     24  C12 UNL     1       0.194   1.928  -0.395  1.00  0.00    -0.002 A   
ATOM     25  C13 UNL     1       0.650   3.264  -0.508  1.00  0.00     0.012 A   
ATOM     26  C17 UNL     1       0.622   0.973  -1.333  1.00  0.00     0.045 A   
ATOM     27  C14 UNL     1       1.513   3.644  -1.543  1.00  0.00     0.037 A   
ATOM     28  C16 UNL     1       1.471   1.380  -2.340  1.00  0.00     0.109 A   
ATOM     29  C15 UNL     1       1.905   2.678  -2.443  1.00  0.00     0.108 A   
ATOM     30  O3  UNL     1       1.970   0.584  -3.322  1.00  0.00    -0.316 OA  
ATOM     31  O4  UNL     1       2.730   2.866  -3.505  1.00  0.00    -0.316 OA  
ATOM     32  C18 UNL     1       2.762   1.537  -4.069  1.00  0.00     0.337 C   
ENDBRANCH  23  24
ENDBRANCH  20  23
ENDBRANCH  19  20
BRANCH  19  33
ATOM     33  C19 UNL     1       1.683  -0.074   3.316  1.00  0.00     0.043 C   
ATOM     34  C20 UNL     1       2.671   1.089   3.449  1.00  0.00     0.010 C   
ATOM     35  C23 UNL     1       2.619  -1.286   3.388  1.00  0.00     0.010 C   
ATOM     36  C21 UNL     1       3.647   0.619   4.520  1.00  0.00     0.001 C   
ATOM     37  C22 UNL     1       3.689  -0.902   4.406  1.00  0.00     0.001 C   
ENDBRANCH  19  33
ENDBRANCH   3  19
TORSDOF 10
