REMARK SMILES CC(C)(C)[C@H]([NH2+]Cc1ccc2c(c1)OCO2)c1cn(Cc2cccc(N([O-])[O-])c2F)nn1
REMARK SMILES IDX 17 1 18 2 19 3 31 4 32 5 5 7 2 8 1 9 3 10 4 11 6 12 7 15
REMARK SMILES IDX 8 16 9 17 13 18 10 19 12 20 11 21 14 22 16 23 15 24 20 25
REMARK SMILES IDX 21 26 22 27 29 28 23 29 25 30 24 31 30 32 26 33 27 34 28 35
REMARK H PARENT 18 6 6 13 6 14
ROOT
ATOM     1   C14 UNL     1      -0.502   2.182  -0.211  1.00  0.00     0.127 A   
ATOM     2   C15 UNL     1      -0.138   2.261   1.114  1.00  0.00     0.046 A   
ATOM     3   N2  UNL     1      -1.325   2.193   1.790  1.00  0.00    -0.208 N   
ATOM     4   N4  UNL     1      -2.359   2.079   0.934  1.00  0.00    -0.076 NA  
ATOM     5   N5  UNL     1      -1.867   2.065  -0.294  1.00  0.00    -0.132 NA  
ATOM     6   H20 UNL     1       0.813   2.345   1.621  1.00  0.00     0.083 HD  
ENDROOT
BRANCH   1   7
ATOM     7   C5  UNL     1       0.319   2.138  -1.464  1.00  0.00     0.120 C   
BRANCH   7   8
ATOM     8   C2  UNL     1       0.574   3.542  -2.117  1.00  0.00     0.010 C   
ATOM     9   C1  UNL     1      -0.723   4.221  -2.601  1.00  0.00     0.017 C   
ATOM     10  C3  UNL     1       1.534   3.400  -3.321  1.00  0.00     0.017 C   
ATOM     11  C4  UNL     1       1.263   4.485  -1.104  1.00  0.00     0.017 C   
ENDBRANCH   7   8
BRANCH   7  12
ATOM     12  N1  UNL     1      -0.365   1.211  -2.453  1.00  0.00     0.250 N   
ATOM     13  H11 UNL     1      -1.357   1.177  -2.166  1.00  0.00     0.199 HD  
ATOM     14  H12 UNL     1      -0.374   1.605  -3.396  1.00  0.00     0.199 HD  
BRANCH  12  15
ATOM     15  C6  UNL     1       0.151  -0.185  -2.514  1.00  0.00     0.164 C   
BRANCH  15  16
ATOM     16  C7  UNL     1      -0.129  -0.991  -1.278  1.00  0.00    -0.002 A   
ATOM     17  C8  UNL     1       0.913  -1.310  -0.374  1.00  0.00     0.012 A   
ATOM     18  C12 UNL     1      -1.437  -1.427  -1.003  1.00  0.00     0.045 A   
ATOM     19  C9  UNL     1       0.658  -2.047   0.787  1.00  0.00     0.037 A   
ATOM     20  C11 UNL     1      -1.652  -2.157   0.147  1.00  0.00     0.109 A   
ATOM     21  C10 UNL     1      -0.636  -2.456   1.020  1.00  0.00     0.108 A   
ATOM     22  O1  UNL     1      -2.848  -2.664   0.548  1.00  0.00    -0.316 OA  
ATOM     23  O2  UNL     1      -1.066  -3.180   2.086  1.00  0.00    -0.316 OA  
ATOM     24  C13 UNL     1      -2.455  -3.375   1.741  1.00  0.00     0.337 C   
ENDBRANCH  15  16
ENDBRANCH  12  15
ENDBRANCH   7  12
ENDBRANCH   1   7
BRANCH   3  25
ATOM     25  C16 UNL     1      -1.550   2.279   3.222  1.00  0.00     0.172 C   
BRANCH  25  26
ATOM     26  C17 UNL     1      -1.556   0.918   3.865  1.00  0.00     0.009 A   
ATOM     27  C18 UNL     1      -2.760   0.309   4.256  1.00  0.00     0.008 A   
ATOM     28  C22 UNL     1      -0.352   0.236   4.085  1.00  0.00     0.156 A   
ATOM     29  C19 UNL     1      -2.755  -0.946   4.872  1.00  0.00     0.003 A   
ATOM     30  C21 UNL     1      -0.353  -1.024   4.679  1.00  0.00     0.154 A   
ATOM     31  C20 UNL     1      -1.552  -1.618   5.088  1.00  0.00     0.034 A   
ATOM     32  F1  UNL     1       0.792   0.842   3.731  1.00  0.00    -0.204 F   
BRANCH  30  33
ATOM     33  N3  UNL     1       0.902  -1.732   4.872  1.00  0.00     0.095 N   
ATOM     34  O3  UNL     1       0.969  -2.514   5.832  1.00  0.00    -0.138 OA  
ATOM     35  O4  UNL     1       1.817  -1.526   4.062  1.00  0.00    -0.138 OA  
ENDBRANCH  30  33
ENDBRANCH  25  26
ENDBRANCH   3  25
TORSDOF 8
