REMARK SMILES c1nc(Cn2cc([C@@H]([NH2+]Cc3ccc4c(c3)OCO4)C3CCCCC3)nn2)n[nH]1
REMARK SMILES IDX 5 1 6 2 7 3 26 4 27 5 4 7 3 8 1 9 2 10 29 11 28 12 8 14 9 15
REMARK SMILES IDX 10 18 11 19 12 20 16 21 13 22 15 23 14 24 17 25 19 26 18 27
REMARK SMILES IDX 20 28 21 29 25 30 22 31 24 32 23 33
REMARK H PARENT 6 6 29 13 9 16 9 17
ROOT
ATOM     1   N2  UNL     1       0.185   1.815   2.682  1.00  0.00    -0.204 N   
ATOM     2   C4  UNL     1       0.330   0.462   2.510  1.00  0.00     0.046 A   
ATOM     3   C5  UNL     1       0.124   0.267   1.163  1.00  0.00     0.127 A   
ATOM     4   N4  UNL     1      -0.117   1.478   0.567  1.00  0.00    -0.132 NA  
ATOM     5   N5  UNL     1      -0.064   2.415   1.498  1.00  0.00    -0.076 NA  
ATOM     6   H4  UNL     1       0.548  -0.205   3.333  1.00  0.00     0.083 HD  
ENDROOT
BRANCH   1   7
ATOM     7   C3  UNL     1       0.343   2.622   3.881  1.00  0.00     0.213 C   
BRANCH   7   8
ATOM     8   C2  UNL     1      -0.155   1.922   5.092  1.00  0.00     0.167 A   
ATOM     9   C1  UNL     1      -1.484   1.009   6.449  1.00  0.00     0.205 A   
ATOM     10  N1  UNL     1      -1.459   1.512   5.236  1.00  0.00    -0.221 NA  
ATOM     11  N7  UNL     1      -0.245   1.092   7.003  1.00  0.00    -0.226 N   
ATOM     12  N6  UNL     1       0.630   1.642   6.143  1.00  0.00    -0.166 NA  
ATOM     13  H26 UNL     1       0.068   0.806   7.925  1.00  0.00     0.177 HD  
ENDBRANCH   7   8
ENDBRANCH   1   7
BRANCH   3  14
ATOM     14  C6  UNL     1       0.068  -0.978   0.340  1.00  0.00     0.117 C   
BRANCH  14  15
ATOM     15  N3  UNL     1      -0.871  -0.777  -0.825  1.00  0.00     0.249 N   
ATOM     16  H6  UNL     1      -0.654   0.148  -1.225  1.00  0.00     0.199 HD  
ATOM     17  H7  UNL     1      -0.704  -1.462  -1.569  1.00  0.00     0.199 HD  
BRANCH  15  18
ATOM     18  C7  UNL     1      -2.320  -0.769  -0.482  1.00  0.00     0.164 C   
BRANCH  18  19
ATOM     19  C8  UNL     1      -3.144  -0.499  -1.710  1.00  0.00    -0.002 A   
ATOM     20  C9  UNL     1      -3.424   0.834  -2.097  1.00  0.00     0.012 A   
ATOM     21  C13 UNL     1      -3.590  -1.562  -2.513  1.00  0.00     0.045 A   
ATOM     22  C10 UNL     1      -4.149   1.106  -3.262  1.00  0.00     0.037 A   
ATOM     23  C12 UNL     1      -4.302  -1.258  -3.655  1.00  0.00     0.109 A   
ATOM     24  C11 UNL     1      -4.574   0.037  -4.019  1.00  0.00     0.108 A   
ATOM     25  O1  UNL     1      -4.803  -2.162  -4.537  1.00  0.00    -0.316 OA  
ATOM     26  O2  UNL     1      -5.282   0.113  -5.176  1.00  0.00    -0.316 OA  
ATOM     27  C14 UNL     1      -5.448  -1.286  -5.490  1.00  0.00     0.337 C   
ENDBRANCH  18  19
ENDBRANCH  15  18
ENDBRANCH  14  15
BRANCH  14  28
ATOM     28  C15 UNL     1       1.440  -1.442  -0.218  1.00  0.00     0.043 C   
ATOM     29  C16 UNL     1       2.144  -0.401  -1.110  1.00  0.00     0.010 C   
ATOM     30  C20 UNL     1       2.388  -1.905   0.906  1.00  0.00     0.010 C   
ATOM     31  C17 UNL     1       3.465  -0.937  -1.664  1.00  0.00     0.001 C   
ATOM     32  C19 UNL     1       3.702  -2.445   0.345  1.00  0.00     0.001 C   
ATOM     33  C18 UNL     1       4.391  -1.422  -0.553  1.00  0.00     0.000 C   
ENDBRANCH  14  28
ENDBRANCH   3  14
TORSDOF 7
