REMARK SMILES CCc1nc(C)c(Cn2cc([C@@H]([NH2+]Cc3ccc4c(c3)OCO4)C(C)(C)C)nn2)o1
REMARK SMILES IDX 9 1 10 2 11 3 28 4 29 5 8 7 7 8 3 9 4 10 30 11 5 12 6 13
REMARK SMILES IDX 2 14 1 15 12 16 13 17 14 20 15 21 16 22 20 23 17 24 19 25
REMARK SMILES IDX 18 26 21 27 23 28 22 29 24 30 25 31 26 32 27 33
REMARK H PARENT 10 6 13 18 13 19
ROOT
ATOM     1   N2  UNL     1       0.999   1.236   1.458  1.00  0.00    -0.206 N   
ATOM     2   C8  UNL     1       0.557  -0.056   1.555  1.00  0.00     0.046 A   
ATOM     3   C9  UNL     1       1.551  -0.796   0.956  1.00  0.00     0.127 A   
ATOM     4   N4  UNL     1       2.544   0.049   0.524  1.00  0.00    -0.132 NA  
ATOM     5   N5  UNL     1       2.195   1.287   0.837  1.00  0.00    -0.076 NA  
ATOM     6   H11 UNL     1      -0.389  -0.309   2.013  1.00  0.00     0.083 HD  
ENDROOT
BRANCH   1   7
ATOM     7   C7  UNL     1       0.384   2.444   1.984  1.00  0.00     0.197 C   
BRANCH   7   8
ATOM     8   C6  UNL     1      -0.951   2.656   1.389  1.00  0.00     0.102 A   
ATOM     9   C3  UNL     1      -3.091   2.410   1.234  1.00  0.00     0.147 A   
ATOM     10  N1  UNL     1      -2.795   3.212   0.233  1.00  0.00    -0.231 NA  
ATOM     11  O3  UNL     1      -2.011   2.021   1.979  1.00  0.00    -0.296 OA  
ATOM     12  C4  UNL     1      -1.436   3.390   0.326  1.00  0.00     0.068 A   
ATOM     13  C5  UNL     1      -0.712   4.257  -0.626  1.00  0.00     0.069 C   
BRANCH   9  14
ATOM     14  C2  UNL     1      -4.413   1.872   1.638  1.00  0.00     0.080 C   
ATOM     15  C1  UNL     1      -5.030   2.691   2.762  1.00  0.00     0.013 C   
ENDBRANCH   9  14
ENDBRANCH   7   8
ENDBRANCH   1   7
BRANCH   3  16
ATOM     16  C10 UNL     1       1.661  -2.263   0.671  1.00  0.00     0.120 C   
BRANCH  16  17
ATOM     17  N3  UNL     1       2.369  -2.443  -0.660  1.00  0.00     0.250 N   
ATOM     18  H13 UNL     1       3.027  -3.223  -0.632  1.00  0.00     0.199 HD  
ATOM     19  H14 UNL     1       2.950  -1.598  -0.785  1.00  0.00     0.199 HD  
BRANCH  17  20
ATOM     20  C11 UNL     1       1.499  -2.597  -1.860  1.00  0.00     0.164 C   
BRANCH  20  21
ATOM     21  C12 UNL     1       0.656  -1.393  -2.173  1.00  0.00    -0.002 A   
ATOM     22  C13 UNL     1       1.259  -0.200  -2.641  1.00  0.00     0.012 A   
ATOM     23  C17 UNL     1      -0.738  -1.436  -1.994  1.00  0.00     0.045 A   
ATOM     24  C14 UNL     1       0.490   0.934  -2.921  1.00  0.00     0.037 A   
ATOM     25  C16 UNL     1      -1.467  -0.300  -2.281  1.00  0.00     0.109 A   
ATOM     26  C15 UNL     1      -0.871   0.852  -2.729  1.00  0.00     0.108 A   
ATOM     27  O1  UNL     1      -2.816  -0.176  -2.169  1.00  0.00    -0.316 OA  
ATOM     28  O2  UNL     1      -1.767   1.845  -2.958  1.00  0.00    -0.316 OA  
ATOM     29  C18 UNL     1      -3.007   1.178  -2.642  1.00  0.00     0.337 C   
ENDBRANCH  20  21
ENDBRANCH  17  20
ENDBRANCH  16  17
BRANCH  16  30
ATOM     30  C19 UNL     1       2.393  -3.079   1.795  1.00  0.00     0.010 C   
ATOM     31  C20 UNL     1       2.330  -4.592   1.481  1.00  0.00     0.017 C   
ATOM     32  C21 UNL     1       3.870  -2.672   1.961  1.00  0.00     0.017 C   
ATOM     33  C22 UNL     1       1.682  -2.876   3.153  1.00  0.00     0.017 C   
ENDBRANCH  16  30
ENDBRANCH   3  16
TORSDOF 8
