REMARK SMILES C[C@H](O)c1cccc(-n2cc([C@@H]([NH2+]Cc3ccc4c(c3)OCO4)C3CCCC3)nn2)c1
REMARK SMILES IDX 9 1 10 2 11 3 29 4 30 5 8 6 4 7 5 8 31 9 6 10 7 11 2 12 1 13
REMARK SMILES IDX 3 14 12 16 13 17 14 20 15 21 16 22 20 23 17 24 19 25 18 26
REMARK SMILES IDX 21 27 23 28 22 29 24 30 25 31 28 32 26 33 27 34
REMARK H PARENT 3 15 13 18 13 19
ROOT
ATOM     1   N1  UNL     1      -0.790   0.225  -1.062  1.00  0.00    -0.181 N   
ATOM     2   C8  UNL     1       0.171  -0.615  -0.526  1.00  0.00     0.135 A   
ATOM     3   C9  UNL     1      -0.239  -0.837   0.774  1.00  0.00     0.127 A   
ATOM     4   N3  UNL     1      -1.391  -0.146   1.007  1.00  0.00    -0.131 NA  
ATOM     5   N4  UNL     1      -1.714   0.493  -0.104  1.00  0.00    -0.071 NA  
ENDROOT
BRANCH   1   6
ATOM     6   C7  UNL     1      -0.853   0.814  -2.347  1.00  0.00     0.058 A   
ATOM     7   C3  UNL     1       0.147   1.274  -4.521  1.00  0.00    -0.018 A   
ATOM     8   C4  UNL     1      -0.968   2.066  -4.846  1.00  0.00     0.006 A   
ATOM     9   C24 UNL     1       0.186   0.636  -3.269  1.00  0.00     0.032 A   
ATOM     10  C5  UNL     1      -2.019   2.217  -3.943  1.00  0.00     0.002 A   
ATOM     11  C6  UNL     1      -1.961   1.605  -2.691  1.00  0.00     0.026 A   
BRANCH   7  12
ATOM     12  C2  UNL     1       1.268   1.097  -5.523  1.00  0.00     0.141 C   
ATOM     13  C1  UNL     1       1.044  -0.135  -6.396  1.00  0.00     0.043 C   
BRANCH  12  14
ATOM     14  O1  UNL     1       2.516   0.968  -4.835  1.00  0.00    -0.389 OA  
ATOM     15  H5  UNL     1       3.204   0.868  -5.515  1.00  0.00     0.211 HD  
ENDBRANCH  12  14
ENDBRANCH   7  12
ENDBRANCH   1   6
BRANCH   3  16
ATOM     16  C10 UNL     1       0.364  -1.637   1.886  1.00  0.00     0.117 C   
BRANCH  16  17
ATOM     17  N2  UNL     1       0.210  -0.872   3.178  1.00  0.00     0.249 N   
ATOM     18  H11 UNL     1      -0.760  -0.514   3.192  1.00  0.00     0.199 HD  
ATOM     19  H12 UNL     1       0.298  -1.474   4.007  1.00  0.00     0.199 HD  
BRANCH  17  20
ATOM     20  C11 UNL     1       1.105   0.311   3.340  1.00  0.00     0.164 C   
BRANCH  20  21
ATOM     21  C12 UNL     1       0.731   1.075   4.578  1.00  0.00    -0.002 A   
ATOM     22  C13 UNL     1      -0.211   2.134   4.500  1.00  0.00     0.012 A   
ATOM     23  C17 UNL     1       1.258   0.703   5.826  1.00  0.00     0.045 A   
ATOM     24  C14 UNL     1      -0.612   2.824   5.649  1.00  0.00     0.037 A   
ATOM     25  C16 UNL     1       0.832   1.395   6.939  1.00  0.00     0.109 A   
ATOM     26  C15 UNL     1      -0.075   2.425   6.854  1.00  0.00     0.108 A   
ATOM     27  O2  UNL     1       1.227   1.153   8.218  1.00  0.00    -0.316 OA  
ATOM     28  O3  UNL     1      -0.358   2.957   8.068  1.00  0.00    -0.316 OA  
ATOM     29  C18 UNL     1       0.471   2.159   8.933  1.00  0.00     0.337 C   
ENDBRANCH  20  21
ENDBRANCH  17  20
ENDBRANCH  16  17
BRANCH  16  30
ATOM     30  C19 UNL     1      -0.334  -3.001   2.042  1.00  0.00     0.043 C   
ATOM     31  C20 UNL     1      -0.183  -3.909   0.818  1.00  0.00     0.010 C   
ATOM     32  C23 UNL     1       0.199  -3.874   3.191  1.00  0.00     0.010 C   
ATOM     33  C21 UNL     1      -0.600  -5.270   1.353  1.00  0.00     0.001 C   
ATOM     34  C22 UNL     1       0.039  -5.329   2.734  1.00  0.00     0.001 C   
ENDBRANCH  16  30
ENDBRANCH   3  16
TORSDOF 8
