REMARK SMILES C[C@@H](O)c1cccc(-n2cc([C@@H]([NH2+]Cc3ccc4c(c3)OCO4)C3CCCC3)nn2)c1
REMARK SMILES IDX 9 1 10 2 11 3 29 4 30 5 8 6 4 7 5 8 31 9 6 10 7 11 2 12 1 13
REMARK SMILES IDX 3 14 12 16 13 17 14 20 15 21 16 22 20 23 17 24 19 25 18 26
REMARK SMILES IDX 21 27 23 28 22 29 24 30 25 31 28 32 26 33 27 34
REMARK H PARENT 3 15 13 18 13 19
ROOT
ATOM     1   N1  UNL     1      -2.432  -0.631  -0.612  1.00  0.00    -0.181 N   
ATOM     2   C8  UNL     1      -1.262  -0.299   0.045  1.00  0.00     0.135 A   
ATOM     3   C9  UNL     1      -0.587   0.531  -0.820  1.00  0.00     0.127 A   
ATOM     4   N3  UNL     1      -1.324   0.685  -1.960  1.00  0.00    -0.131 NA  
ATOM     5   N4  UNL     1      -2.431  -0.027  -1.830  1.00  0.00    -0.071 NA  
ENDROOT
BRANCH   1   6
ATOM     6   C7  UNL     1      -3.492  -1.468  -0.186  1.00  0.00     0.058 A   
ATOM     7   C3  UNL     1      -4.505  -2.927   1.489  1.00  0.00    -0.018 A   
ATOM     8   C4  UNL     1      -5.597  -3.121   0.630  1.00  0.00     0.006 A   
ATOM     9   C24 UNL     1      -3.450  -2.100   1.065  1.00  0.00     0.032 A   
ATOM     10  C5  UNL     1      -5.644  -2.494  -0.616  1.00  0.00     0.002 A   
ATOM     11  C6  UNL     1      -4.596  -1.669  -1.025  1.00  0.00     0.026 A   
BRANCH   7  12
ATOM     12  C2  UNL     1      -4.469  -3.630   2.831  1.00  0.00     0.141 C   
ATOM     13  C1  UNL     1      -3.844  -5.016   2.718  1.00  0.00     0.043 C   
BRANCH  12  14
ATOM     14  O1  UNL     1      -3.711  -2.856   3.761  1.00  0.00    -0.389 OA  
ATOM     15  H5  UNL     1      -3.812  -3.283   4.630  1.00  0.00     0.211 HD  
ENDBRANCH  12  14
ENDBRANCH   7  12
ENDBRANCH   1   6
BRANCH   3  16
ATOM     16  C10 UNL     1       0.746   1.198  -0.709  1.00  0.00     0.117 C   
BRANCH  16  17
ATOM     17  N2  UNL     1       1.346   1.391  -2.082  1.00  0.00     0.249 N   
ATOM     18  H11 UNL     1       2.081   2.102  -2.068  1.00  0.00     0.199 HD  
ATOM     19  H12 UNL     1       0.586   1.754  -2.677  1.00  0.00     0.199 HD  
BRANCH  17  20
ATOM     20  C11 UNL     1       1.869   0.161  -2.749  1.00  0.00     0.164 C   
BRANCH  20  21
ATOM     21  C12 UNL     1       3.121  -0.363  -2.103  1.00  0.00    -0.002 A   
ATOM     22  C13 UNL     1       4.357   0.303  -2.290  1.00  0.00     0.012 A   
ATOM     23  C17 UNL     1       3.067  -1.499  -1.277  1.00  0.00     0.045 A   
ATOM     24  C14 UNL     1       5.521  -0.152  -1.661  1.00  0.00     0.037 A   
ATOM     25  C16 UNL     1       4.232  -1.919  -0.670  1.00  0.00     0.109 A   
ATOM     26  C15 UNL     1       5.424  -1.265  -0.855  1.00  0.00     0.108 A   
ATOM     27  O2  UNL     1       4.348  -2.986   0.163  1.00  0.00    -0.316 OA  
ATOM     28  O3  UNL     1       6.443  -1.840  -0.166  1.00  0.00    -0.316 OA  
ATOM     29  C18 UNL     1       5.765  -2.957   0.450  1.00  0.00     0.337 C   
ENDBRANCH  20  21
ENDBRANCH  17  20
ENDBRANCH  16  17
BRANCH  16  30
ATOM     30  C19 UNL     1       0.649   2.546   0.033  1.00  0.00     0.043 C   
ATOM     31  C20 UNL     1      -0.072   3.680  -0.702  1.00  0.00     0.010 C   
ATOM     32  C23 UNL     1       2.005   3.159   0.422  1.00  0.00     0.010 C   
ATOM     33  C21 UNL     1       0.330   4.904   0.107  1.00  0.00     0.001 C   
ATOM     34  C22 UNL     1       1.806   4.676   0.405  1.00  0.00     0.001 C   
ENDBRANCH  16  30
ENDBRANCH   3  16
TORSDOF 8
