REMARK SMILES C/C(=C/c1ccco1)Cn1cc([C@@H]([NH2+]Cc2ccc3c(c2)OCO3)C(C)(C)C)nn1
REMARK SMILES IDX 10 1 11 2 12 3 29 4 30 5 9 7 2 8 1 9 3 10 4 11 5 12 8 13
REMARK SMILES IDX 6 14 7 15 13 16 14 17 15 20 16 21 17 22 21 23 18 24 20 25
REMARK SMILES IDX 19 26 22 27 24 28 23 29 25 30 26 31 27 32 28 33
REMARK H PARENT 11 6 14 18 14 19
ROOT
ATOM     1   N1  UNL     1       0.310  -2.422  -0.922  1.00  0.00    -0.208 N   
ATOM     2   C9  UNL     1       0.777  -1.754   0.177  1.00  0.00     0.046 A   
ATOM     3   C10 UNL     1      -0.204  -0.827   0.448  1.00  0.00     0.127 A   
ATOM     4   N3  UNL     1      -1.204  -0.946  -0.487  1.00  0.00    -0.132 NA  
ATOM     5   N4  UNL     1      -0.875  -1.916  -1.322  1.00  0.00    -0.076 NA  
ATOM     6   H10 UNL     1       1.726  -1.999   0.638  1.00  0.00     0.083 HD  
ENDROOT
BRANCH   1   7
ATOM     7   C8  UNL     1       0.929  -3.524  -1.644  1.00  0.00     0.164 C   
BRANCH   7   8
ATOM     8   C2  UNL     1       2.047  -3.058  -2.556  1.00  0.00    -0.051 C   
ATOM     9   C1  UNL     1       1.569  -2.381  -3.821  1.00  0.00     0.041 C   
BRANCH   8  10
ATOM     10  C3  UNL     1       3.368  -3.244  -2.366  1.00  0.00     0.034 C   
BRANCH  10  11
ATOM     11  C4  UNL     1       3.959  -3.865  -1.229  1.00  0.00     0.081 A   
ATOM     12  C5  UNL     1       5.224  -4.432  -1.133  1.00  0.00     0.036 A   
ATOM     13  O1  UNL     1       3.366  -3.985   0.010  1.00  0.00    -0.318 OA  
ATOM     14  C6  UNL     1       5.392  -4.919   0.184  1.00  0.00     0.028 A   
ATOM     15  C7  UNL     1       4.224  -4.625   0.839  1.00  0.00     0.136 A   
ENDBRANCH  10  11
ENDBRANCH   8  10
ENDBRANCH   7   8
ENDBRANCH   1   7
BRANCH   3  16
ATOM     16  C11 UNL     1      -0.296   0.258   1.480  1.00  0.00     0.120 C   
BRANCH  16  17
ATOM     17  N2  UNL     1      -1.059   1.417   0.876  1.00  0.00     0.250 N   
ATOM     18  H12 UNL     1      -1.446   2.052   1.577  1.00  0.00     0.199 HD  
ATOM     19  H13 UNL     1      -1.867   0.999   0.389  1.00  0.00     0.199 HD  
BRANCH  17  20
ATOM     20  C12 UNL     1      -0.317   2.215  -0.139  1.00  0.00     0.164 C   
BRANCH  20  21
ATOM     21  C13 UNL     1      -1.238   3.213  -0.784  1.00  0.00    -0.002 A   
ATOM     22  C14 UNL     1      -2.057   2.818  -1.869  1.00  0.00     0.012 A   
ATOM     23  C18 UNL     1      -1.344   4.519  -0.274  1.00  0.00     0.045 A   
ATOM     24  C15 UNL     1      -2.963   3.712  -2.448  1.00  0.00     0.037 A   
ATOM     25  C17 UNL     1      -2.247   5.375  -0.870  1.00  0.00     0.109 A   
ATOM     26  C16 UNL     1      -3.032   4.984  -1.926  1.00  0.00     0.108 A   
ATOM     27  O2  UNL     1      -2.477   6.663  -0.500  1.00  0.00    -0.316 OA  
ATOM     28  O3  UNL     1      -3.854   5.977  -2.356  1.00  0.00    -0.316 OA  
ATOM     29  C19 UNL     1      -3.470   7.054  -1.475  1.00  0.00     0.337 C   
ENDBRANCH  20  21
ENDBRANCH  17  20
ENDBRANCH  16  17
BRANCH  16  30
ATOM     30  C20 UNL     1      -0.968  -0.191   2.825  1.00  0.00     0.010 C   
ATOM     31  C21 UNL     1      -2.442  -0.604   2.642  1.00  0.00     0.017 C   
ATOM     32  C22 UNL     1      -0.203  -1.387   3.435  1.00  0.00     0.017 C   
ATOM     33  C23 UNL     1      -0.909   0.953   3.865  1.00  0.00     0.017 C   
ENDBRANCH  16  30
ENDBRANCH   3  16
TORSDOF 9
