REMARK SMILES C/C(=C\c1ccco1)Cn1cc([C@@H]([NH2+]Cc2ccc3c(c2)OCO3)C(C)(C)C)nn1
REMARK SMILES IDX 10 1 11 2 12 3 29 4 30 5 9 7 2 8 1 9 3 10 4 11 5 12 8 13
REMARK SMILES IDX 6 14 7 15 13 16 14 17 15 20 16 21 17 22 21 23 18 24 20 25
REMARK SMILES IDX 19 26 22 27 24 28 23 29 25 30 26 31 27 32 28 33
REMARK H PARENT 11 6 14 18 14 19
ROOT
ATOM     1   N1  UNL     1       1.476  -1.953  -0.774  1.00  0.00    -0.208 N   
ATOM     2   C9  UNL     1       0.638  -1.467   0.193  1.00  0.00     0.046 A   
ATOM     3   C10 UNL     1       0.355  -0.186  -0.226  1.00  0.00     0.127 A   
ATOM     4   N3  UNL     1       1.071   0.080  -1.367  1.00  0.00    -0.132 NA  
ATOM     5   N4  UNL     1       1.764  -1.001  -1.681  1.00  0.00    -0.076 NA  
ATOM     6   H10 UNL     1       0.306  -2.071   1.026  1.00  0.00     0.083 HD  
ENDROOT
BRANCH   1   7
ATOM     7   C8  UNL     1       2.032  -3.295  -0.891  1.00  0.00     0.164 C   
BRANCH   7   8
ATOM     8   C2  UNL     1       0.957  -4.333  -1.140  1.00  0.00    -0.051 C   
ATOM     9   C1  UNL     1       0.245  -4.192  -2.464  1.00  0.00     0.041 C   
BRANCH   8  10
ATOM     10  C3  UNL     1       0.725  -5.299  -0.227  1.00  0.00     0.034 C   
BRANCH  10  11
ATOM     11  C4  UNL     1      -0.316  -6.265  -0.323  1.00  0.00     0.081 A   
ATOM     12  C5  UNL     1      -0.400  -7.504   0.303  1.00  0.00     0.036 A   
ATOM     13  O1  UNL     1      -1.480  -6.092  -1.041  1.00  0.00    -0.318 OA  
ATOM     14  C6  UNL     1      -1.628  -8.101  -0.068  1.00  0.00     0.028 A   
ATOM     15  C7  UNL     1      -2.248  -7.198  -0.892  1.00  0.00     0.136 A   
ENDBRANCH  10  11
ENDBRANCH   8  10
ENDBRANCH   7   8
ENDBRANCH   1   7
BRANCH   3  16
ATOM     16  C11 UNL     1      -0.507   0.889   0.368  1.00  0.00     0.120 C   
BRANCH  16  17
ATOM     17  N2  UNL     1       0.096   2.232   0.025  1.00  0.00     0.250 N   
ATOM     18  H12 UNL     1       0.352   2.189  -0.973  1.00  0.00     0.199 HD  
ATOM     19  H13 UNL     1      -0.574   3.001   0.113  1.00  0.00     0.199 HD  
BRANCH  17  20
ATOM     20  C12 UNL     1       1.332   2.590   0.774  1.00  0.00     0.164 C   
BRANCH  20  21
ATOM     21  C13 UNL     1       1.891   3.889   0.266  1.00  0.00    -0.002 A   
ATOM     22  C14 UNL     1       2.736   3.901  -0.870  1.00  0.00     0.012 A   
ATOM     23  C18 UNL     1       1.530   5.103   0.874  1.00  0.00     0.045 A   
ATOM     24  C15 UNL     1       3.225   5.104  -1.389  1.00  0.00     0.037 A   
ATOM     25  C17 UNL     1       2.029   6.271   0.336  1.00  0.00     0.109 A   
ATOM     26  C16 UNL     1       2.851   6.272  -0.764  1.00  0.00     0.108 A   
ATOM     27  O2  UNL     1       1.777   7.523   0.799  1.00  0.00    -0.316 OA  
ATOM     28  O3  UNL     1       3.222   7.526  -1.131  1.00  0.00    -0.316 OA  
ATOM     29  C19 UNL     1       2.549   8.319  -0.130  1.00  0.00     0.337 C   
ENDBRANCH  20  21
ENDBRANCH  17  20
ENDBRANCH  16  17
BRANCH  16  30
ATOM     30  C20 UNL     1      -2.007   0.836  -0.089  1.00  0.00     0.010 C   
ATOM     31  C21 UNL     1      -2.618  -0.549   0.225  1.00  0.00     0.017 C   
ATOM     32  C22 UNL     1      -2.843   1.878   0.689  1.00  0.00     0.017 C   
ATOM     33  C23 UNL     1      -2.177   1.107  -1.597  1.00  0.00     0.017 C   
ENDBRANCH  16  30
ENDBRANCH   3  16
TORSDOF 9
