REMARK SMILES Cc1cc(CCn2cc([C@@H]([NH2+]Cc3ccc4c(c3)OCO4)C3CCCC3)nn2)cc(Cl)n1
REMARK SMILES IDX 7 1 8 2 9 3 27 4 28 5 6 7 5 8 4 9 2 10 3 11 32 12 30 13
REMARK SMILES IDX 29 14 1 15 31 16 10 17 11 18 12 21 13 22 14 23 18 24 15 25
REMARK SMILES IDX 17 26 16 27 19 28 21 29 20 30 22 31 23 32 26 33 24 34 25 35
REMARK H PARENT 8 6 11 19 11 20
ROOT
ATOM     1   N1  UNL     1       2.932  -0.907  -0.768  1.00  0.00    -0.212 N   
ATOM     2   C7  UNL     1       1.848  -1.716  -0.559  1.00  0.00     0.045 A   
ATOM     3   C8  UNL     1       1.523  -1.512   0.766  1.00  0.00     0.127 A   
ATOM     4   N3  UNL     1       2.455  -0.667   1.317  1.00  0.00    -0.132 NA  
ATOM     5   N4  UNL     1       3.317  -0.317   0.376  1.00  0.00    -0.076 NA  
ATOM     6   H9  UNL     1       1.385  -2.273  -1.361  1.00  0.00     0.083 HD  
ENDROOT
BRANCH   1   7
ATOM     7   C6  UNL     1       3.490  -0.491  -2.042  1.00  0.00     0.139 C   
BRANCH   7   8
ATOM     8   C5  UNL     1       3.144   0.963  -2.410  1.00  0.00     0.057 C   
BRANCH   8   9
ATOM     9   C4  UNL     1       1.669   1.264  -2.262  1.00  0.00    -0.042 A   
ATOM     10  C2  UNL     1      -0.620   1.009  -2.959  1.00  0.00     0.039 A   
ATOM     11  C3  UNL     1       0.742   0.872  -3.231  1.00  0.00     0.027 A   
ATOM     12  N5  UNL     1      -1.085   1.473  -1.775  1.00  0.00    -0.241 NA  
ATOM     13  C24 UNL     1      -0.170   1.898  -0.885  1.00  0.00     0.129 A   
ATOM     14  C23 UNL     1       1.195   1.832  -1.076  1.00  0.00     0.044 A   
ATOM     15  C1  UNL     1      -1.636   0.589  -3.979  1.00  0.00     0.067 C   
ATOM     16  CL1 UNL     1      -0.814   2.365   0.635  1.00  0.00    -0.062 Cl  
ENDBRANCH   8   9
ENDBRANCH   7   8
ENDBRANCH   1   7
BRANCH   3  17
ATOM     17  C9  UNL     1       0.370  -1.981   1.607  1.00  0.00     0.117 C   
BRANCH  17  18
ATOM     18  N2  UNL     1      -0.195  -0.835   2.412  1.00  0.00     0.249 N   
ATOM     19  H11 UNL     1      -1.210  -0.909   2.528  1.00  0.00     0.199 HD  
ATOM     20  H12 UNL     1      -0.050   0.034   1.877  1.00  0.00     0.199 HD  
BRANCH  18  21
ATOM     21  C10 UNL     1       0.417  -0.638   3.756  1.00  0.00     0.164 C   
BRANCH  21  22
ATOM     22  C11 UNL     1      -0.131   0.602   4.401  1.00  0.00    -0.002 A   
ATOM     23  C12 UNL     1       0.504   1.850   4.192  1.00  0.00     0.012 A   
ATOM     24  C16 UNL     1      -1.311   0.544   5.161  1.00  0.00     0.045 A   
ATOM     25  C13 UNL     1      -0.022   3.024   4.739  1.00  0.00     0.037 A   
ATOM     26  C15 UNL     1      -1.804   1.721   5.686  1.00  0.00     0.109 A   
ATOM     27  C14 UNL     1      -1.178   2.926   5.481  1.00  0.00     0.108 A   
ATOM     28  O1  UNL     1      -2.929   1.841   6.438  1.00  0.00    -0.316 OA  
ATOM     29  O2  UNL     1      -1.829   3.956   6.080  1.00  0.00    -0.316 OA  
ATOM     30  C17 UNL     1      -2.932   3.262   6.701  1.00  0.00     0.337 C   
ENDBRANCH  21  22
ENDBRANCH  18  21
ENDBRANCH  17  18
BRANCH  17  31
ATOM     31  C18 UNL     1      -0.762  -2.663   0.809  1.00  0.00     0.043 C   
ATOM     32  C19 UNL     1      -1.817  -3.357   1.697  1.00  0.00     0.010 C   
ATOM     33  C22 UNL     1      -1.573  -1.755  -0.127  1.00  0.00     0.010 C   
ATOM     34  C20 UNL     1      -3.179  -2.998   1.108  1.00  0.00     0.001 C   
ATOM     35  C21 UNL     1      -2.884  -2.503  -0.297  1.00  0.00     0.001 C   
ENDBRANCH  17  31
ENDBRANCH   3  17
TORSDOF 8
