REMARK SMILES c1ccc2c(c1)C[C@@H](Cn1cc([C@@H]([NH2+]Cc3ccc4c(c3)OCO4)C3CCCCC3)nn1)O2
REMARK SMILES IDX 13 1 12 2 10 3 11 4 32 5 31 6 9 8 8 9 1 10 2 11 6 12 3 13
REMARK SMILES IDX 5 14 4 15 7 16 33 17 14 18 15 21 16 22 17 23 21 24 18 25
REMARK SMILES IDX 20 26 19 27 22 28 24 29 23 30 25 31 26 32 30 33 27 34 29 35
REMARK SMILES IDX 28 36
REMARK H PARENT 11 7 14 19 14 20
ROOT
ATOM     1   C12 UNL     1      -0.929  -1.397   0.628  1.00  0.00     0.117 C   
ENDROOT
BRANCH   1   2
ATOM     2   C11 UNL     1      -0.809   0.047   0.253  1.00  0.00     0.127 A   
ATOM     3   N1  UNL     1      -0.905   2.042  -0.569  1.00  0.00    -0.210 N   
ATOM     4   C10 UNL     1      -1.528   0.828  -0.625  1.00  0.00     0.045 A   
ATOM     5   N4  UNL     1       0.133   2.015   0.288  1.00  0.00    -0.076 NA  
ATOM     6   N3  UNL     1       0.204   0.797   0.798  1.00  0.00    -0.132 NA  
ATOM     7   H10 UNL     1      -2.377   0.641  -1.269  1.00  0.00     0.083 HD  
BRANCH   3   8
ATOM     8   C9  UNL     1      -1.223   3.255  -1.297  1.00  0.00     0.166 C   
BRANCH   8   9
ATOM     9   C8  UNL     1      -0.361   3.393  -2.546  1.00  0.00     0.149 C   
ATOM     10  C1  UNL     1      -0.439   4.670  -6.960  1.00  0.00     0.000 A   
ATOM     11  C2  UNL     1      -0.659   3.288  -7.093  1.00  0.00     0.003 A   
ATOM     12  C6  UNL     1      -0.353   5.259  -5.698  1.00  0.00     0.006 A   
ATOM     13  C3  UNL     1      -0.791   2.480  -5.963  1.00  0.00     0.034 A   
ATOM     14  C5  UNL     1      -0.476   4.442  -4.590  1.00  0.00    -0.015 A   
ATOM     15  C4  UNL     1      -0.690   3.080  -4.728  1.00  0.00     0.079 A   
ATOM     16  C7  UNL     1      -0.473   4.799  -3.156  1.00  0.00     0.072 C   
ATOM     17  O3  UNL     1      -0.801   2.418  -3.535  1.00  0.00    -0.341 OA  
ENDBRANCH   8   9
ENDBRANCH   3   8
ENDBRANCH   1   2
BRANCH   1  18
ATOM     18  N2  UNL     1       0.419  -1.914   1.057  1.00  0.00     0.249 N   
ATOM     19  H12 UNL     1       0.353  -2.642   1.770  1.00  0.00     0.199 HD  
ATOM     20  H13 UNL     1       0.898  -1.119   1.511  1.00  0.00     0.199 HD  
BRANCH  18  21
ATOM     21  C13 UNL     1       1.300  -2.373  -0.052  1.00  0.00     0.164 C   
BRANCH  21  22
ATOM     22  C14 UNL     1       2.695  -2.635   0.440  1.00  0.00    -0.002 A   
ATOM     23  C15 UNL     1       2.978  -3.769   1.241  1.00  0.00     0.012 A   
ATOM     24  C19 UNL     1       3.728  -1.729   0.131  1.00  0.00     0.045 A   
ATOM     25  C16 UNL     1       4.271  -4.002   1.724  1.00  0.00     0.037 A   
ATOM     26  C18 UNL     1       4.994  -1.998   0.609  1.00  0.00     0.109 A   
ATOM     27  C17 UNL     1       5.258  -3.099   1.386  1.00  0.00     0.108 A   
ATOM     28  O1  UNL     1       6.102  -1.245   0.380  1.00  0.00    -0.316 OA  
ATOM     29  O2  UNL     1       6.565  -3.173   1.750  1.00  0.00    -0.316 OA  
ATOM     30  C20 UNL     1       7.110  -2.029   1.057  1.00  0.00     0.337 C   
ENDBRANCH  21  22
ENDBRANCH  18  21
ENDBRANCH   1  18
BRANCH   1  31
ATOM     31  C21 UNL     1      -1.986  -1.641   1.736  1.00  0.00     0.043 C   
ATOM     32  C22 UNL     1      -2.350  -3.135   1.836  1.00  0.00     0.010 C   
ATOM     33  C26 UNL     1      -1.589  -1.091   3.122  1.00  0.00     0.010 C   
ATOM     34  C23 UNL     1      -3.439  -3.377   2.881  1.00  0.00     0.001 C   
ATOM     35  C25 UNL     1      -2.679  -1.345   4.162  1.00  0.00     0.001 C   
ATOM     36  C24 UNL     1      -3.042  -2.823   4.244  1.00  0.00     0.000 C   
ENDBRANCH   1  31
TORSDOF 7
