REMARK SMILES c1ccc2c(c1)C[C@H](Cn1cc([C@@H]([NH2+]Cc3ccc4c(c3)OCO4)C3CCCCC3)nn1)O2
REMARK SMILES IDX 13 1 12 2 10 3 11 4 32 5 31 6 9 8 8 9 1 10 2 11 6 12 3 13
REMARK SMILES IDX 5 14 4 15 7 16 33 17 14 18 15 21 16 22 17 23 21 24 18 25
REMARK SMILES IDX 20 26 19 27 22 28 24 29 23 30 25 31 26 32 30 33 27 34 29 35
REMARK SMILES IDX 28 36
REMARK H PARENT 11 7 14 19 14 20
ROOT
ATOM     1   C12 UNL     1       0.577  -1.599   0.630  1.00  0.00     0.117 C   
ENDROOT
BRANCH   1   2
ATOM     2   C11 UNL     1       1.145  -0.593   1.580  1.00  0.00     0.127 A   
ATOM     3   N1  UNL     1       1.585   1.050   2.914  1.00  0.00    -0.210 N   
ATOM     4   C10 UNL     1       0.543   0.411   2.305  1.00  0.00     0.045 A   
ATOM     5   N4  UNL     1       2.758   0.472   2.592  1.00  0.00    -0.076 NA  
ATOM     6   N3  UNL     1       2.502  -0.537   1.776  1.00  0.00    -0.132 NA  
ATOM     7   H10 UNL     1      -0.483   0.732   2.425  1.00  0.00     0.083 HD  
BRANCH   3   8
ATOM     8   C9  UNL     1       1.549   2.207   3.786  1.00  0.00     0.166 C   
BRANCH   8   9
ATOM     9   C8  UNL     1       1.299   3.522   3.048  1.00  0.00     0.149 C   
ATOM     10  C1  UNL     1       0.697   5.357  -1.140  1.00  0.00     0.000 A   
ATOM     11  C2  UNL     1      -0.637   5.115  -0.774  1.00  0.00     0.003 A   
ATOM     12  C6  UNL     1       1.746   4.982  -0.296  1.00  0.00     0.006 A   
ATOM     13  C3  UNL     1      -0.937   4.490   0.438  1.00  0.00     0.034 A   
ATOM     14  C5  UNL     1       1.433   4.372   0.906  1.00  0.00    -0.015 A   
ATOM     15  C4  UNL     1       0.115   4.132   1.256  1.00  0.00     0.079 A   
ATOM     16  C7  UNL     1       2.337   3.863   1.961  1.00  0.00     0.072 C   
ATOM     17  O3  UNL     1      -0.033   3.500   2.460  1.00  0.00    -0.341 OA  
ENDBRANCH   8   9
ENDBRANCH   3   8
ENDBRANCH   1   2
BRANCH   1  18
ATOM     18  N2  UNL     1       1.471  -1.677  -0.593  1.00  0.00     0.249 N   
ATOM     19  H12 UNL     1       1.181  -2.438  -1.209  1.00  0.00     0.199 HD  
ATOM     20  H13 UNL     1       2.415  -1.899  -0.247  1.00  0.00     0.199 HD  
BRANCH  18  21
ATOM     21  C13 UNL     1       1.580  -0.435  -1.420  1.00  0.00     0.164 C   
BRANCH  21  22
ATOM     22  C14 UNL     1       0.280  -0.041  -2.062  1.00  0.00    -0.002 A   
ATOM     23  C15 UNL     1      -0.404   1.119  -1.626  1.00  0.00     0.012 A   
ATOM     24  C19 UNL     1      -0.280  -0.830  -3.082  1.00  0.00     0.045 A   
ATOM     25  C16 UNL     1      -1.631   1.486  -2.189  1.00  0.00     0.037 A   
ATOM     26  C18 UNL     1      -1.492  -0.442  -3.612  1.00  0.00     0.109 A   
ATOM     27  C17 UNL     1      -2.150   0.682  -3.179  1.00  0.00     0.108 A   
ATOM     28  O1  UNL     1      -2.171  -1.095  -4.592  1.00  0.00    -0.316 OA  
ATOM     29  O2  UNL     1      -3.323   0.881  -3.832  1.00  0.00    -0.316 OA  
ATOM     30  C20 UNL     1      -3.325  -0.237  -4.745  1.00  0.00     0.337 C   
ENDBRANCH  21  22
ENDBRANCH  18  21
ENDBRANCH   1  18
BRANCH   1  31
ATOM     31  C21 UNL     1       0.460  -3.018   1.271  1.00  0.00     0.043 C   
ATOM     32  C22 UNL     1      -0.433  -2.978   2.534  1.00  0.00     0.010 C   
ATOM     33  C26 UNL     1      -0.094  -4.069   0.283  1.00  0.00     0.010 C   
ATOM     34  C23 UNL     1      -0.625  -4.356   3.165  1.00  0.00     0.001 C   
ATOM     35  C25 UNL     1      -0.297  -5.439   0.929  1.00  0.00     0.001 C   
ATOM     36  C24 UNL     1      -1.180  -5.358   2.165  1.00  0.00     0.000 C   
ENDBRANCH   1  31
TORSDOF 7
