REMARK SMILES CC(C)[C@H]([NH2+]Cc1ccc2c(c1)OCO2)c1cn(CCc2cccc(F)c2)nn1
REMARK SMILES IDX 16 1 17 2 18 3 28 4 29 5 4 7 2 8 1 9 3 10 5 11 6 14 7 15
REMARK SMILES IDX 8 16 12 17 9 18 11 19 10 20 13 21 15 22 14 23 19 24 20 25
REMARK SMILES IDX 21 26 22 27 27 28 23 29 25 30 24 31 26 32
REMARK H PARENT 17 6 5 12 5 13
ROOT
ATOM     1   C13 UNL     1       0.875   1.462  -1.186  1.00  0.00     0.127 A   
ATOM     2   C14 UNL     1       1.753   1.774  -0.172  1.00  0.00     0.045 A   
ATOM     3   N2  UNL     1       1.072   2.689   0.583  1.00  0.00    -0.212 N   
ATOM     4   N3  UNL     1      -0.129   2.962   0.041  1.00  0.00    -0.076 NA  
ATOM     5   N4  UNL     1      -0.263   2.214  -1.042  1.00  0.00    -0.132 NA  
ATOM     6   H18 UNL     1       2.730   1.403   0.109  1.00  0.00     0.083 HD  
ENDROOT
BRANCH   1   7
ATOM     7   C4  UNL     1       0.954   0.438  -2.273  1.00  0.00     0.117 C   
BRANCH   7   8
ATOM     8   C2  UNL     1       1.622   0.993  -3.558  1.00  0.00     0.037 C   
ATOM     9   C1  UNL     1       1.999  -0.132  -4.529  1.00  0.00     0.014 C   
ATOM     10  C3  UNL     1       0.787   2.049  -4.292  1.00  0.00     0.014 C   
ENDBRANCH   7   8
BRANCH   7  11
ATOM     11  N1  UNL     1      -0.417  -0.101  -2.582  1.00  0.00     0.249 N   
ATOM     12  H9  UNL     1      -0.448  -0.578  -3.487  1.00  0.00     0.199 HD  
ATOM     13  H10 UNL     1      -1.047   0.711  -2.658  1.00  0.00     0.199 HD  
BRANCH  11  14
ATOM     14  C5  UNL     1      -0.994  -1.003  -1.543  1.00  0.00     0.164 C   
BRANCH  14  15
ATOM     15  C6  UNL     1      -2.379  -1.430  -1.938  1.00  0.00    -0.002 A   
ATOM     16  C7  UNL     1      -3.492  -0.620  -1.605  1.00  0.00     0.012 A   
ATOM     17  C11 UNL     1      -2.574  -2.603  -2.686  1.00  0.00     0.045 A   
ATOM     18  C8  UNL     1      -4.785  -0.979  -2.001  1.00  0.00     0.037 A   
ATOM     19  C10 UNL     1      -3.862  -2.927  -3.060  1.00  0.00     0.109 A   
ATOM     20  C9  UNL     1      -4.936  -2.139  -2.728  1.00  0.00     0.108 A   
ATOM     21  O1  UNL     1      -4.223  -4.020  -3.782  1.00  0.00    -0.316 OA  
ATOM     22  O2  UNL     1      -6.109  -2.638  -3.196  1.00  0.00    -0.316 OA  
ATOM     23  C12 UNL     1      -5.657  -3.847  -3.842  1.00  0.00     0.337 C   
ENDBRANCH  14  15
ENDBRANCH  11  14
ENDBRANCH   7  11
ENDBRANCH   1   7
BRANCH   3  24
ATOM     24  C15 UNL     1       1.436   3.219   1.882  1.00  0.00     0.139 C   
BRANCH  24  25
ATOM     25  C16 UNL     1       0.639   2.587   3.029  1.00  0.00     0.057 C   
BRANCH  25  26
ATOM     26  C17 UNL     1       0.818   1.087   3.106  1.00  0.00    -0.043 A   
ATOM     27  C18 UNL     1       1.906   0.525   3.787  1.00  0.00     0.004 A   
ATOM     28  C22 UNL     1      -0.075   0.238   2.436  1.00  0.00     0.043 A   
ATOM     29  C19 UNL     1       2.102  -0.860   3.789  1.00  0.00     0.003 A   
ATOM     30  C21 UNL     1       0.145  -1.135   2.423  1.00  0.00     0.123 A   
ATOM     31  C20 UNL     1       1.222  -1.692   3.098  1.00  0.00     0.039 A   
ATOM     32  F1  UNL     1      -0.674  -1.921   1.710  1.00  0.00    -0.207 F   
ENDBRANCH  25  26
ENDBRANCH  24  25
ENDBRANCH   3  24
TORSDOF 8
