REMARK SMILES CC(C)[C@H]([NH2+]Cc1ccc2c(c1)OCO2)c1cn(Cc2cn(C)cn2)nn1
REMARK SMILES IDX 16 1 17 2 18 3 26 4 27 5 4 7 2 8 1 9 3 10 5 11 6 14 7 15
REMARK SMILES IDX 8 16 12 17 9 18 11 19 10 20 13 21 15 22 14 23 19 24 20 25
REMARK SMILES IDX 21 26 25 27 22 28 24 29 23 30
REMARK H PARENT 17 6 5 12 5 13
ROOT
ATOM     1   C13 UNL     1       1.798  -0.126   0.181  1.00  0.00     0.127 A   
ATOM     2   C14 UNL     1       2.879  -0.842   0.642  1.00  0.00     0.046 A   
ATOM     3   N2  UNL     1       2.486  -2.150   0.533  1.00  0.00    -0.206 N   
ATOM     4   N5  UNL     1       1.263  -2.235  -0.028  1.00  0.00    -0.076 NA  
ATOM     5   N6  UNL     1       0.822  -1.002  -0.222  1.00  0.00    -0.132 NA  
ATOM     6   H18 UNL     1       3.839  -0.568   1.059  1.00  0.00     0.083 HD  
ENDROOT
BRANCH   1   7
ATOM     7   C4  UNL     1       1.577   1.350   0.078  1.00  0.00     0.117 C   
BRANCH   7   8
ATOM     8   C2  UNL     1       1.551   2.036   1.471  1.00  0.00     0.037 C   
ATOM     9   C1  UNL     1       1.666   3.560   1.356  1.00  0.00     0.014 C   
ATOM     10  C3  UNL     1       0.327   1.668   2.319  1.00  0.00     0.014 C   
ENDBRANCH   7   8
BRANCH   7  11
ATOM     11  N1  UNL     1       0.309   1.659  -0.671  1.00  0.00     0.249 N   
ATOM     12  H9  UNL     1      -0.047   2.593  -0.451  1.00  0.00     0.199 HD  
ATOM     13  H10 UNL     1      -0.401   0.990  -0.341  1.00  0.00     0.199 HD  
BRANCH  11  14
ATOM     14  C5  UNL     1       0.387   1.516  -2.153  1.00  0.00     0.164 C   
BRANCH  14  15
ATOM     15  C6  UNL     1      -0.931   1.881  -2.775  1.00  0.00    -0.002 A   
ATOM     16  C7  UNL     1      -1.155   3.187  -3.269  1.00  0.00     0.012 A   
ATOM     17  C11 UNL     1      -1.972   0.936  -2.814  1.00  0.00     0.045 A   
ATOM     18  C8  UNL     1      -2.399   3.554  -3.796  1.00  0.00     0.037 A   
ATOM     19  C10 UNL     1      -3.186   1.328  -3.340  1.00  0.00     0.109 A   
ATOM     20  C9  UNL     1      -3.394   2.600  -3.816  1.00  0.00     0.108 A   
ATOM     21  O1  UNL     1      -4.293   0.547  -3.442  1.00  0.00    -0.316 OA  
ATOM     22  O2  UNL     1      -4.657   2.780  -4.277  1.00  0.00    -0.316 OA  
ATOM     23  C12 UNL     1      -5.217   1.465  -4.070  1.00  0.00     0.337 C   
ENDBRANCH  14  15
ENDBRANCH  11  14
ENDBRANCH   7  11
ENDBRANCH   1   7
BRANCH   3  24
ATOM     24  C15 UNL     1       3.252  -3.338   0.869  1.00  0.00     0.191 C   
BRANCH  24  25
ATOM     25  C16 UNL     1       3.340  -3.490   2.344  1.00  0.00     0.075 A   
ATOM     26  C17 UNL     1       2.650  -4.344   3.183  1.00  0.00     0.101 A   
ATOM     27  N4  UNL     1       4.212  -2.711   3.077  1.00  0.00    -0.243 NA  
ATOM     28  N3  UNL     1       3.137  -4.089   4.434  1.00  0.00    -0.299 N   
ATOM     29  C19 UNL     1       4.071  -3.101   4.324  1.00  0.00     0.188 A   
ATOM     30  C18 UNL     1       2.729  -4.744   5.652  1.00  0.00     0.137 C   
ENDBRANCH  24  25
ENDBRANCH   3  24
TORSDOF 7
