REMARK SMILES Cc1cnccc1CCn1cc([C@H](CC(C)C)[NH2+]Cc2ccc3c(c2)OCO3)nn1
REMARK SMILES IDX 10 1 11 2 12 3 29 4 30 5 9 7 8 8 7 9 2 10 3 11 4 12 6 13
REMARK SMILES IDX 5 14 1 15 13 16 14 17 15 18 16 19 17 20 18 21 19 24 20 25
REMARK SMILES IDX 21 26 25 27 22 28 24 29 23 30 26 31 28 32 27 33
REMARK H PARENT 11 6 18 22 18 23
ROOT
ATOM     1   N2  UNL     1       1.256  -2.567  -0.202  1.00  0.00    -0.212 N   
ATOM     2   C9  UNL     1       1.485  -1.285   0.212  1.00  0.00     0.045 A   
ATOM     3   C10 UNL     1       0.361  -0.967   0.940  1.00  0.00     0.127 A   
ATOM     4   N4  UNL     1      -0.484  -2.048   0.960  1.00  0.00    -0.132 NA  
ATOM     5   N5  UNL     1       0.078  -3.022   0.262  1.00  0.00    -0.076 NA  
ATOM     6   H11 UNL     1       2.371  -0.732  -0.067  1.00  0.00     0.083 HD  
ENDROOT
BRANCH   1   7
ATOM     7   C8  UNL     1       2.073  -3.377  -1.082  1.00  0.00     0.139 C   
BRANCH   7   8
ATOM     8   C7  UNL     1       1.478  -3.533  -2.487  1.00  0.00     0.057 C   
BRANCH   8   9
ATOM     9   C6  UNL     1       1.170  -2.212  -3.165  1.00  0.00    -0.040 A   
ATOM     10  C2  UNL     1      -0.140  -1.814  -3.489  1.00  0.00    -0.029 A   
ATOM     11  C3  UNL     1      -0.310  -0.551  -4.055  1.00  0.00     0.114 A   
ATOM     12  N1  UNL     1       0.693   0.322  -4.291  1.00  0.00    -0.264 NA  
ATOM     13  C5  UNL     1       2.227  -1.341  -3.472  1.00  0.00     0.024 A   
ATOM     14  C4  UNL     1       1.942  -0.104  -4.027  1.00  0.00     0.111 A   
ATOM     15  C1  UNL     1      -1.341  -2.686  -3.269  1.00  0.00     0.046 C   
ENDBRANCH   8   9
ENDBRANCH   7   8
ENDBRANCH   1   7
BRANCH   3  16
ATOM     16  C11 UNL     1      -0.054   0.309   1.597  1.00  0.00     0.114 C   
BRANCH  16  17
ATOM     17  C12 UNL     1       0.240   0.264   3.110  1.00  0.00     0.064 C   
BRANCH  17  18
ATOM     18  C13 UNL     1      -0.058   1.553   3.905  1.00  0.00    -0.012 C   
ATOM     19  C14 UNL     1       0.303   1.341   5.379  1.00  0.00     0.007 C   
ATOM     20  C15 UNL     1       0.696   2.768   3.362  1.00  0.00     0.007 C   
ENDBRANCH  17  18
ENDBRANCH  16  17
BRANCH  16  21
ATOM     21  N3  UNL     1      -1.530   0.537   1.385  1.00  0.00     0.249 N   
ATOM     22  H22 UNL     1      -1.883   1.262   2.014  1.00  0.00     0.199 HD  
ATOM     23  H23 UNL     1      -1.996  -0.345   1.642  1.00  0.00     0.199 HD  
BRANCH  21  24
ATOM     24  C16 UNL     1      -1.943   0.875  -0.011  1.00  0.00     0.164 C   
BRANCH  24  25
ATOM     25  C17 UNL     1      -1.501   2.251  -0.426  1.00  0.00    -0.002 A   
ATOM     26  C18 UNL     1      -0.457   2.411  -1.368  1.00  0.00     0.012 A   
ATOM     27  C22 UNL     1      -2.100   3.389   0.140  1.00  0.00     0.045 A   
ATOM     28  C19 UNL     1      -0.011   3.683  -1.740  1.00  0.00     0.037 A   
ATOM     29  C21 UNL     1      -1.634   4.629  -0.246  1.00  0.00     0.109 A   
ATOM     30  C20 UNL     1      -0.618   4.773  -1.158  1.00  0.00     0.108 A   
ATOM     31  O1  UNL     1      -2.097   5.822   0.209  1.00  0.00    -0.316 OA  
ATOM     32  O2  UNL     1      -0.313   6.075  -1.392  1.00  0.00    -0.316 OA  
ATOM     33  C23 UNL     1      -1.276   6.741  -0.548  1.00  0.00     0.337 C   
ENDBRANCH  24  25
ENDBRANCH  21  24
ENDBRANCH  16  21
ENDBRANCH   3  16
TORSDOF 9
