REMARK SMILES CC(C)C[C@H]([NH2+]Cc1ccc2c(c1)OCO2)c1cn(CCc2cccc(O)c2)nn1
REMARK SMILES IDX 17 1 18 2 19 3 29 4 30 5 5 7 4 8 2 9 1 10 3 11 6 12 7 15
REMARK SMILES IDX 8 16 9 17 13 18 10 19 12 20 11 21 14 22 16 23 15 24 20 25
REMARK SMILES IDX 21 26 22 27 23 28 28 29 24 30 26 31 25 32 27 33
REMARK H PARENT 18 6 6 13 6 14 27 34
ROOT
ATOM     1   C14 UNL     1       0.331   0.773   2.372  1.00  0.00     0.127 A   
ATOM     2   C15 UNL     1       0.981  -0.268   2.998  1.00  0.00     0.045 A   
ATOM     3   N2  UNL     1       0.524  -0.207   4.285  1.00  0.00    -0.212 N   
ATOM     4   N3  UNL     1      -0.254   0.875   4.471  1.00  0.00    -0.076 NA  
ATOM     5   N4  UNL     1      -0.403   1.468   3.297  1.00  0.00    -0.132 NA  
ATOM     6   H20 UNL     1       1.602  -1.077   2.640  1.00  0.00     0.083 HD  
ENDROOT
BRANCH   1   7
ATOM     7   C5  UNL     1       0.217   1.115   0.923  1.00  0.00     0.114 C   
BRANCH   7   8
ATOM     8   C4  UNL     1       0.622   2.573   0.634  1.00  0.00     0.064 C   
BRANCH   8   9
ATOM     9   C2  UNL     1       2.091   2.912   0.975  1.00  0.00    -0.012 C   
ATOM     10  C1  UNL     1       3.083   2.084   0.157  1.00  0.00     0.007 C   
ATOM     11  C3  UNL     1       2.346   4.403   0.735  1.00  0.00     0.007 C   
ENDBRANCH   8   9
ENDBRANCH   7   8
BRANCH   7  12
ATOM     12  N1  UNL     1      -1.226   0.896   0.522  1.00  0.00     0.249 N   
ATOM     13  H11 UNL     1      -1.804   1.522   1.100  1.00  0.00     0.199 HD  
ATOM     14  H12 UNL     1      -1.506  -0.048   0.840  1.00  0.00     0.199 HD  
BRANCH  12  15
ATOM     15  C6  UNL     1      -1.602   1.020  -0.908  1.00  0.00     0.164 C   
BRANCH  15  16
ATOM     16  C7  UNL     1      -0.829   0.105  -1.818  1.00  0.00    -0.002 A   
ATOM     17  C8  UNL     1      -1.133  -1.276  -1.872  1.00  0.00     0.012 A   
ATOM     18  C12 UNL     1       0.230   0.605  -2.597  1.00  0.00     0.045 A   
ATOM     19  C9  UNL     1      -0.396  -2.149  -2.681  1.00  0.00     0.037 A   
ATOM     20  C11 UNL     1       0.942  -0.282  -3.379  1.00  0.00     0.109 A   
ATOM     21  C10 UNL     1       0.638  -1.620  -3.420  1.00  0.00     0.108 A   
ATOM     22  O1  UNL     1       1.994   0.038  -4.177  1.00  0.00    -0.316 OA  
ATOM     23  O2  UNL     1       1.458  -2.312  -4.252  1.00  0.00    -0.316 OA  
ATOM     24  C13 UNL     1       2.310  -1.254  -4.744  1.00  0.00     0.337 C   
ENDBRANCH  15  16
ENDBRANCH  12  15
ENDBRANCH   7  12
ENDBRANCH   1   7
BRANCH   3  25
ATOM     25  C16 UNL     1       0.574  -1.257   5.284  1.00  0.00     0.139 C   
BRANCH  25  26
ATOM     26  C17 UNL     1      -0.753  -2.021   5.405  1.00  0.00     0.057 C   
BRANCH  26  27
ATOM     27  C18 UNL     1      -1.217  -2.615   4.090  1.00  0.00    -0.044 A   
ATOM     28  C19 UNL     1      -0.798  -3.888   3.688  1.00  0.00     0.004 A   
ATOM     29  C23 UNL     1      -2.019  -1.857   3.221  1.00  0.00     0.037 A   
ATOM     30  C20 UNL     1      -1.167  -4.391   2.436  1.00  0.00     0.003 A   
ATOM     31  C22 UNL     1      -2.349  -2.354   1.967  1.00  0.00     0.071 A   
ATOM     32  C21 UNL     1      -1.941  -3.620   1.567  1.00  0.00     0.033 A   
BRANCH  31  33
ATOM     33  O3  UNL     1      -3.051  -1.548   1.117  1.00  0.00    -0.361 OA  
ATOM     34  H28 UNL     1      -3.735  -2.128   0.723  1.00  0.00     0.218 HD  
ENDBRANCH  31  33
ENDBRANCH  26  27
ENDBRANCH  25  26
ENDBRANCH   3  25
TORSDOF 10
