REMARK SMILES Cc1ccc(CCn2cc([C@@H]([NH2+]Cc3ccc4c(c3)OCO4)C3CCCC3)nn2)c(Cl)n1
REMARK SMILES IDX 8 1 9 2 10 3 28 4 29 5 7 7 6 8 5 9 2 10 3 11 32 12 4 13
REMARK SMILES IDX 30 14 1 15 31 16 11 17 12 18 13 21 14 22 15 23 19 24 16 25
REMARK SMILES IDX 18 26 17 27 20 28 22 29 21 30 23 31 24 32 27 33 25 34 26 35
REMARK H PARENT 9 6 12 19 12 20
ROOT
ATOM     1   N1  UNL     1      -0.009   2.947   1.845  1.00  0.00    -0.212 N   
ATOM     2   C8  UNL     1       0.687   2.280   0.877  1.00  0.00     0.045 A   
ATOM     3   C9  UNL     1       0.101   2.696  -0.298  1.00  0.00     0.127 A   
ATOM     4   N3  UNL     1      -0.901   3.585  -0.010  1.00  0.00    -0.132 NA  
ATOM     5   N4  UNL     1      -0.956   3.732   1.304  1.00  0.00    -0.076 NA  
ATOM     6   H10 UNL     1       1.486   1.589   1.105  1.00  0.00     0.083 HD  
ENDROOT
BRANCH   1   7
ATOM     7   C7  UNL     1       0.146   2.862   3.282  1.00  0.00     0.139 C   
BRANCH   7   8
ATOM     8   C6  UNL     1      -0.877   1.938   3.951  1.00  0.00     0.060 C   
BRANCH   8   9
ATOM     9   C5  UNL     1      -0.718   0.494   3.546  1.00  0.00    -0.009 A   
ATOM     10  C2  UNL     1      -0.335  -2.120   2.719  1.00  0.00     0.039 A   
ATOM     11  C3  UNL     1       0.489  -1.597   3.707  1.00  0.00     0.024 A   
ATOM     12  N5  UNL     1      -1.310  -1.390   2.130  1.00  0.00    -0.241 NA  
ATOM     13  C4  UNL     1       0.298  -0.280   4.119  1.00  0.00     0.009 A   
ATOM     14  C24 UNL     1      -1.500  -0.129   2.575  1.00  0.00     0.132 A   
ATOM     15  C1  UNL     1      -0.148  -3.531   2.244  1.00  0.00     0.067 C   
ATOM     16  CL1 UNL     1      -2.795   0.656   1.758  1.00  0.00    -0.062 Cl  
ENDBRANCH   8   9
ENDBRANCH   7   8
ENDBRANCH   1   7
BRANCH   3  17
ATOM     17  C10 UNL     1       0.354   2.309  -1.719  1.00  0.00     0.117 C   
BRANCH  17  18
ATOM     18  N2  UNL     1      -0.965   2.189  -2.453  1.00  0.00     0.249 N   
ATOM     19  H12 UNL     1      -0.830   2.234  -3.465  1.00  0.00     0.199 HD  
ATOM     20  H13 UNL     1      -1.516   3.018  -2.185  1.00  0.00     0.199 HD  
BRANCH  18  21
ATOM     21  C11 UNL     1      -1.788   0.985  -2.131  1.00  0.00     0.164 C   
BRANCH  21  22
ATOM     22  C12 UNL     1      -1.137  -0.303  -2.555  1.00  0.00    -0.002 A   
ATOM     23  C13 UNL     1      -0.782  -1.269  -1.583  1.00  0.00     0.012 A   
ATOM     24  C17 UNL     1      -0.866  -0.558  -3.911  1.00  0.00     0.045 A   
ATOM     25  C14 UNL     1      -0.150  -2.462  -1.948  1.00  0.00     0.037 A   
ATOM     26  C16 UNL     1      -0.234  -1.741  -4.236  1.00  0.00     0.109 A   
ATOM     27  C15 UNL     1       0.115  -2.666  -3.283  1.00  0.00     0.108 A   
ATOM     28  O1  UNL     1       0.115  -2.131  -5.490  1.00  0.00    -0.316 OA  
ATOM     29  O2  UNL     1       0.721  -3.757  -3.817  1.00  0.00    -0.316 OA  
ATOM     30  C18 UNL     1       0.710  -3.421  -5.221  1.00  0.00     0.337 C   
ENDBRANCH  21  22
ENDBRANCH  18  21
ENDBRANCH  17  18
BRANCH  17  31
ATOM     31  C19 UNL     1       1.221   3.352  -2.454  1.00  0.00     0.043 C   
ATOM     32  C20 UNL     1       1.550   2.985  -3.908  1.00  0.00     0.010 C   
ATOM     33  C23 UNL     1       2.617   3.524  -1.845  1.00  0.00     0.010 C   
ATOM     34  C21 UNL     1       2.843   3.728  -4.244  1.00  0.00     0.001 C   
ATOM     35  C22 UNL     1       3.380   4.274  -2.926  1.00  0.00     0.001 C   
ENDBRANCH  17  31
ENDBRANCH   3  17
TORSDOF 8
