REMARK SMILES CC(C)(C)n1cc(CCn2cc([C@@H]([NH2+]Cc3ccc4c(c3)OCO4)C3CCCCC3)nn2)cn1
REMARK SMILES IDX 10 1 11 2 12 3 31 4 32 5 9 7 8 8 7 9 5 10 6 11 34 12 33 13
REMARK SMILES IDX 2 14 1 15 3 16 4 17 13 18 14 19 15 22 16 23 17 24 21 25
REMARK SMILES IDX 18 26 20 27 19 28 22 29 24 30 23 31 25 32 26 33 30 34 27 35
REMARK SMILES IDX 29 36 28 37
REMARK H PARENT 11 6 14 20 14 21
ROOT
ATOM     1   N2  UNL     1      -4.249   0.682  -0.390  1.00  0.00    -0.212 N   
ATOM     2   C9  UNL     1      -3.635  -0.536  -0.516  1.00  0.00     0.045 A   
ATOM     3   C10 UNL     1      -2.659  -0.508   0.457  1.00  0.00     0.127 A   
ATOM     4   N4  UNL     1      -2.842   0.599   1.243  1.00  0.00    -0.132 NA  
ATOM     5   N5  UNL     1      -3.822   1.320   0.716  1.00  0.00    -0.076 NA  
ATOM     6   H15 UNL     1      -3.822  -1.192  -1.355  1.00  0.00     0.083 HD  
ENDROOT
BRANCH   1   7
ATOM     7   C8  UNL     1      -4.927   1.407  -1.451  1.00  0.00     0.139 C   
BRANCH   7   8
ATOM     8   C7  UNL     1      -3.991   2.371  -2.207  1.00  0.00     0.060 C   
BRANCH   8   9
ATOM     9   C6  UNL     1      -2.655   1.768  -2.516  1.00  0.00    -0.011 A   
ATOM     10  N1  UNL     1      -0.971   0.583  -3.312  1.00  0.00    -0.227 N   
ATOM     11  C5  UNL     1      -2.276   0.944  -3.552  1.00  0.00     0.101 A   
ATOM     12  N6  UNL     1      -0.558   0.971  -2.073  1.00  0.00    -0.189 NA  
ATOM     13  C26 UNL     1      -1.500   1.851  -1.709  1.00  0.00     0.136 A   
BRANCH  10  14
ATOM     14  C2  UNL     1      -0.101  -0.239  -4.178  1.00  0.00     0.047 C   
ATOM     15  C1  UNL     1      -0.155   0.274  -5.630  1.00  0.00     0.034 C   
ATOM     16  C3  UNL     1       1.372  -0.183  -3.715  1.00  0.00     0.034 C   
ATOM     17  C4  UNL     1      -0.577  -1.701  -4.125  1.00  0.00     0.034 C   
ENDBRANCH  10  14
ENDBRANCH   8   9
ENDBRANCH   7   8
ENDBRANCH   1   7
BRANCH   3  18
ATOM     18  C11 UNL     1      -1.464  -1.391   0.619  1.00  0.00     0.117 C   
BRANCH  18  19
ATOM     19  N3  UNL     1      -0.185  -0.641   0.336  1.00  0.00     0.249 N   
ATOM     20  H17 UNL     1      -0.297  -0.152  -0.580  1.00  0.00     0.199 HD  
ATOM     21  H18 UNL     1       0.587  -1.294   0.182  1.00  0.00     0.199 HD  
BRANCH  19  22
ATOM     22  C12 UNL     1       0.252   0.415   1.294  1.00  0.00     0.164 C   
BRANCH  22  23
ATOM     23  C13 UNL     1       1.718   0.719   1.113  1.00  0.00    -0.002 A   
ATOM     24  C14 UNL     1       2.682   0.093   1.940  1.00  0.00     0.012 A   
ATOM     25  C18 UNL     1       2.145   1.583   0.090  1.00  0.00     0.045 A   
ATOM     26  C15 UNL     1       4.049   0.330   1.759  1.00  0.00     0.037 A   
ATOM     27  C17 UNL     1       3.500   1.795  -0.061  1.00  0.00     0.109 A   
ATOM     28  C16 UNL     1       4.425   1.187   0.750  1.00  0.00     0.108 A   
ATOM     29  O1  UNL     1       4.076   2.595  -0.997  1.00  0.00    -0.316 OA  
ATOM     30  O2  UNL     1       5.700   1.529   0.430  1.00  0.00    -0.316 OA  
ATOM     31  C19 UNL     1       5.473   2.452  -0.656  1.00  0.00     0.337 C   
ENDBRANCH  22  23
ENDBRANCH  19  22
ENDBRANCH  18  19
BRANCH  18  32
ATOM     32  C20 UNL     1      -1.422  -2.157   1.970  1.00  0.00     0.043 C   
ATOM     33  C21 UNL     1      -2.687  -3.031   2.143  1.00  0.00     0.010 C   
ATOM     34  C25 UNL     1      -0.166  -3.044   2.101  1.00  0.00     0.010 C   
ATOM     35  C22 UNL     1      -2.667  -3.831   3.443  1.00  0.00     0.001 C   
ATOM     36  C24 UNL     1      -0.155  -3.847   3.400  1.00  0.00     0.001 C   
ATOM     37  C23 UNL     1      -1.414  -4.689   3.554  1.00  0.00     0.000 C   
ENDBRANCH  18  32
ENDBRANCH   3  18
TORSDOF 9
