REMARK SMILES CC(C)[C@H]([NH2+]Cc1ccc2c(c1)OCO2)c1cn(C(=O)c2c[nH]c3ccccc23)nn1
REMARK SMILES IDX 16 1 17 2 18 3 30 4 31 5 4 6 2 7 1 8 3 9 5 10 6 13 7 14 8 15
REMARK SMILES IDX 12 16 9 17 11 18 10 19 13 20 15 21 14 22 19 23 20 24 21 25
REMARK SMILES IDX 22 26 29 27 23 28 24 29 28 30 25 31 27 32 26 33
REMARK H PARENT 5 11 5 12 23 34
ROOT
ATOM     1   C13 UNL     1      -1.740  -0.519  -0.224  1.00  0.00     0.128 A   
ATOM     2   C14 UNL     1      -1.331   0.788  -0.108  1.00  0.00     0.139 A   
ATOM     3   N2  UNL     1      -0.451   0.797   0.965  1.00  0.00    -0.143 N   
ATOM     4   N4  UNL     1      -0.409  -0.450   1.503  1.00  0.00    -0.068 NA  
ATOM     5   N5  UNL     1      -1.179  -1.252   0.786  1.00  0.00    -0.131 NA  
ENDROOT
BRANCH   1   6
ATOM     6   C4  UNL     1      -2.522  -1.214  -1.294  1.00  0.00     0.117 C   
BRANCH   6   7
ATOM     7   C2  UNL     1      -3.986  -1.537  -0.901  1.00  0.00     0.037 C   
ATOM     8   C1  UNL     1      -4.129  -2.457   0.318  1.00  0.00     0.014 C   
ATOM     9   C3  UNL     1      -4.801  -0.257  -0.682  1.00  0.00     0.014 C   
ENDBRANCH   6   7
BRANCH   6  10
ATOM     10  N1  UNL     1      -1.822  -2.507  -1.677  1.00  0.00     0.249 N   
ATOM     11  H9  UNL     1      -2.509  -3.215  -1.957  1.00  0.00     0.199 HD  
ATOM     12  H10 UNL     1      -1.378  -2.861  -0.815  1.00  0.00     0.199 HD  
BRANCH  10  13
ATOM     13  C5  UNL     1      -0.773  -2.416  -2.741  1.00  0.00     0.164 C   
BRANCH  13  14
ATOM     14  C6  UNL     1       0.380  -1.518  -2.389  1.00  0.00    -0.002 A   
ATOM     15  C7  UNL     1       1.334  -1.921  -1.423  1.00  0.00     0.012 A   
ATOM     16  C11 UNL     1       0.475  -0.237  -2.959  1.00  0.00     0.045 A   
ATOM     17  C8  UNL     1       2.343  -1.048  -1.000  1.00  0.00     0.037 A   
ATOM     18  C10 UNL     1       1.475   0.602  -2.511  1.00  0.00     0.109 A   
ATOM     19  C9  UNL     1       2.378   0.212  -1.554  1.00  0.00     0.108 A   
ATOM     20  O1  UNL     1       1.665   1.885  -2.914  1.00  0.00    -0.316 OA  
ATOM     21  O2  UNL     1       3.250   1.201  -1.231  1.00  0.00    -0.316 OA  
ATOM     22  C12 UNL     1       2.796   2.265  -2.096  1.00  0.00     0.337 C   
ENDBRANCH  13  14
ENDBRANCH  10  13
ENDBRANCH   6  10
ENDBRANCH   1   6
BRANCH   3  23
ATOM     23  C15 UNL     1       0.387   1.843   1.394  1.00  0.00     0.272 C   
ATOM     24  O3  UNL     1       0.380   2.845   0.677  1.00  0.00    -0.269 OA  
BRANCH  23  25
ATOM     25  C16 UNL     1       1.266   1.761   2.558  1.00  0.00     0.062 A   
ATOM     26  C17 UNL     1       2.529   2.330   2.588  1.00  0.00     0.086 A   
ATOM     27  C23 UNL     1       1.048   1.179   3.853  1.00  0.00     0.010 A   
ATOM     28  N3  UNL     1       3.095   2.076   3.805  1.00  0.00    -0.320 N   
ATOM     29  C18 UNL     1       2.213   1.381   4.599  1.00  0.00     0.038 A   
ATOM     30  C22 UNL     1      -0.032   0.524   4.487  1.00  0.00     0.011 A   
ATOM     31  C19 UNL     1       2.362   0.937   5.918  1.00  0.00     0.024 A   
ATOM     32  C21 UNL     1       0.101   0.074   5.806  1.00  0.00     0.001 A   
ATOM     33  C20 UNL     1       1.284   0.275   6.508  1.00  0.00     0.002 A   
ATOM     34  H20 UNL     1       4.016   2.375   4.099  1.00  0.00     0.152 HD  
ENDBRANCH  23  25
ENDBRANCH   3  23
TORSDOF 7
