REMARK SMILES CS(=O)(=O)c1cccc(-n2cc([C@@H]([NH2+]Cc3ccc4c(c3)OCO4)C3CCCC3)nn2)c1
REMARK SMILES IDX 10 1 11 2 12 3 30 4 31 5 9 6 5 7 6 8 32 9 7 10 8 11 2 12
REMARK SMILES IDX 1 13 3 14 4 15 13 16 14 17 15 20 16 21 17 22 21 23 18 24
REMARK SMILES IDX 20 25 19 26 22 27 24 28 23 29 25 30 26 31 29 32 27 33 28 34
REMARK H PARENT 14 18 14 19
ROOT
ATOM     1   N1  UNL     1      -0.890  -0.867   1.795  1.00  0.00    -0.180 N   
ATOM     2   C7  UNL     1      -0.166   0.050   1.059  1.00  0.00     0.135 A   
ATOM     3   C8  UNL     1      -0.914   1.205   1.097  1.00  0.00     0.127 A   
ATOM     4   N3  UNL     1      -2.008   1.006   1.890  1.00  0.00    -0.131 NA  
ATOM     5   N4  UNL     1      -1.971  -0.241   2.330  1.00  0.00    -0.071 NA  
ENDROOT
BRANCH   1   6
ATOM     6   C6  UNL     1      -0.666  -2.256   1.957  1.00  0.00     0.069 A   
ATOM     7   C2  UNL     1       0.543  -4.280   1.416  1.00  0.00     0.308 A   
ATOM     8   C3  UNL     1      -0.338  -5.038   2.188  1.00  0.00     0.134 A   
ATOM     9   C23 UNL     1       0.390  -2.893   1.294  1.00  0.00     0.160 A   
ATOM     10  C4  UNL     1      -1.374  -4.398   2.865  1.00  0.00     0.014 A   
ATOM     11  C5  UNL     1      -1.541  -3.014   2.752  1.00  0.00     0.027 A   
BRANCH   7  12
ATOM     12  S1  UNL     1       1.837  -5.099   0.510  1.00  0.00    -0.239 S   
ATOM     13  C1  UNL     1       2.857  -5.836   1.759  1.00  0.00     0.674 C   
ATOM     14  O1  UNL     1       1.199  -6.144  -0.265  1.00  0.00    -0.517 OA  
ATOM     15  O2  UNL     1       2.612  -4.061  -0.146  1.00  0.00    -0.517 OA  
ENDBRANCH   7  12
ENDBRANCH   1   6
BRANCH   3  16
ATOM     16  C9  UNL     1      -0.774   2.493   0.351  1.00  0.00     0.117 C   
BRANCH  16  17
ATOM     17  N2  UNL     1      -2.095   2.804  -0.331  1.00  0.00     0.249 N   
ATOM     18  H9  UNL     1      -2.276   3.811  -0.334  1.00  0.00     0.199 HD  
ATOM     19  H10 UNL     1      -2.830   2.393   0.266  1.00  0.00     0.199 HD  
BRANCH  17  20
ATOM     20  C10 UNL     1      -2.266   2.285  -1.723  1.00  0.00     0.164 C   
BRANCH  20  21
ATOM     21  C11 UNL     1      -2.155   0.791  -1.843  1.00  0.00    -0.002 A   
ATOM     22  C12 UNL     1      -3.173  -0.050  -1.329  1.00  0.00     0.012 A   
ATOM     23  C16 UNL     1      -1.012   0.212  -2.422  1.00  0.00     0.045 A   
ATOM     24  C13 UNL     1      -3.043  -1.444  -1.367  1.00  0.00     0.037 A   
ATOM     25  C15 UNL     1      -0.914  -1.164  -2.439  1.00  0.00     0.109 A   
ATOM     26  C14 UNL     1      -1.898  -1.969  -1.924  1.00  0.00     0.108 A   
ATOM     27  O3  UNL     1       0.136  -1.875  -2.927  1.00  0.00    -0.316 OA  
ATOM     28  O4  UNL     1      -1.593  -3.289  -2.023  1.00  0.00    -0.316 OA  
ATOM     29  C17 UNL     1      -0.321  -3.230  -2.706  1.00  0.00     0.337 C   
ENDBRANCH  20  21
ENDBRANCH  17  20
ENDBRANCH  16  17
BRANCH  16  30
ATOM     30  C18 UNL     1      -0.409   3.665   1.283  1.00  0.00     0.043 C   
ATOM     31  C19 UNL     1       0.930   3.473   2.002  1.00  0.00     0.010 C   
ATOM     32  C22 UNL     1      -0.224   5.009   0.559  1.00  0.00     0.010 C   
ATOM     33  C20 UNL     1       1.256   4.873   2.493  1.00  0.00     0.001 C   
ATOM     34  C21 UNL     1       0.847   5.776   1.338  1.00  0.00     0.001 C   
ENDBRANCH  16  30
ENDBRANCH   3  16
TORSDOF 7
