REMARK SMILES Cc1ccccc1[C@H](CO)n1cc([C@@H]([NH2+]Cc2ccc3c(c2)OCO3)C(C)C)nn1
REMARK SMILES IDX 11 1 12 2 13 3 29 4 30 5 8 7 7 8 2 9 3 10 4 11 6 12 5 13
REMARK SMILES IDX 1 14 9 15 10 16 14 18 15 19 16 22 17 23 18 24 22 25 19 26
REMARK SMILES IDX 21 27 20 28 23 29 25 30 24 31 26 32 27 33 28 34
REMARK H PARENT 12 6 10 17 15 20 15 21
ROOT
ATOM     1   N1  UNL     1      -0.924   2.142   1.786  1.00  0.00    -0.202 N   
ATOM     2   C10 UNL     1      -1.877   1.854   0.842  1.00  0.00     0.046 A   
ATOM     3   C11 UNL     1      -2.084   0.499   0.975  1.00  0.00     0.127 A   
ATOM     4   N3  UNL     1      -1.266   0.014   1.963  1.00  0.00    -0.132 NA  
ATOM     5   N4  UNL     1      -0.552   1.019   2.439  1.00  0.00    -0.075 NA  
ATOM     6   H12 UNL     1      -2.299   2.614   0.200  1.00  0.00     0.083 HD  
ENDROOT
BRANCH   1   7
ATOM     7   C8  UNL     1      -0.319   3.446   2.075  1.00  0.00     0.155 C   
BRANCH   7   8
ATOM     8   C7  UNL     1       1.009   3.584   1.333  1.00  0.00    -0.020 A   
ATOM     9   C2  UNL     1       1.172   4.471   0.243  1.00  0.00    -0.046 A   
ATOM     10  C3  UNL     1       2.421   4.555  -0.396  1.00  0.00     0.004 A   
ATOM     11  C4  UNL     1       3.499   3.779   0.025  1.00  0.00     0.000 A   
ATOM     12  C6  UNL     1       2.115   2.808   1.741  1.00  0.00     0.006 A   
ATOM     13  C5  UNL     1       3.346   2.905   1.093  1.00  0.00     0.000 A   
ATOM     14  C1  UNL     1       0.060   5.355  -0.257  1.00  0.00     0.045 C   
ENDBRANCH   7   8
BRANCH   7  15
ATOM     15  C9  UNL     1      -0.202   3.724   3.585  1.00  0.00     0.185 C   
BRANCH  15  16
ATOM     16  O1  UNL     1      -1.497   3.970   4.141  1.00  0.00    -0.394 OA  
ATOM     17  H11 UNL     1      -1.370   4.121   5.096  1.00  0.00     0.210 HD  
ENDBRANCH  15  16
ENDBRANCH   7  15
ENDBRANCH   1   7
BRANCH   3  18
ATOM     18  C12 UNL     1      -2.982  -0.441   0.235  1.00  0.00     0.117 C   
BRANCH  18  19
ATOM     19  N2  UNL     1      -2.503  -1.858   0.405  1.00  0.00     0.249 N   
ATOM     20  H14 UNL     1      -3.243  -2.545   0.236  1.00  0.00     0.199 HD  
ATOM     21  H15 UNL     1      -2.236  -1.958   1.396  1.00  0.00     0.199 HD  
BRANCH  19  22
ATOM     22  C13 UNL     1      -1.306  -2.224  -0.403  1.00  0.00     0.164 C   
BRANCH  22  23
ATOM     23  C14 UNL     1      -0.821  -3.595  -0.023  1.00  0.00    -0.002 A   
ATOM     24  C15 UNL     1       0.065  -3.753   1.071  1.00  0.00     0.012 A   
ATOM     25  C19 UNL     1      -1.286  -4.729  -0.708  1.00  0.00     0.045 A   
ATOM     26  C16 UNL     1       0.491  -5.024   1.471  1.00  0.00     0.037 A   
ATOM     27  C18 UNL     1      -0.846  -5.967  -0.287  1.00  0.00     0.109 A   
ATOM     28  C17 UNL     1       0.017  -6.111   0.771  1.00  0.00     0.108 A   
ATOM     29  O2  UNL     1      -1.199  -7.159  -0.836  1.00  0.00    -0.316 OA  
ATOM     30  O3  UNL     1       0.319  -7.412   1.020  1.00  0.00    -0.316 OA  
ATOM     31  C20 UNL     1      -0.436  -8.074  -0.017  1.00  0.00     0.337 C   
ENDBRANCH  22  23
ENDBRANCH  19  22
ENDBRANCH  18  19
BRANCH  18  32
ATOM     32  C21 UNL     1      -4.461  -0.317   0.687  1.00  0.00     0.037 C   
ATOM     33  C22 UNL     1      -5.410  -1.042  -0.274  1.00  0.00     0.014 C   
ATOM     34  C23 UNL     1      -4.713  -0.794   2.123  1.00  0.00     0.014 C   
ENDBRANCH  18  32
ENDBRANCH   3  18
TORSDOF 9
