REMARK SMILES Cc1ccccc1[C@@H](CO)n1cc([C@@H]([NH2+]Cc2ccc3c(c2)OCO3)C(C)C)nn1
REMARK SMILES IDX 11 1 12 2 13 3 29 4 30 5 8 7 7 8 2 9 3 10 4 11 6 12 5 13
REMARK SMILES IDX 1 14 9 15 10 16 14 18 15 19 16 22 17 23 18 24 22 25 19 26
REMARK SMILES IDX 21 27 20 28 23 29 25 30 24 31 26 32 27 33 28 34
REMARK H PARENT 12 6 10 17 15 20 15 21
ROOT
ATOM     1   N1  UNL     1       2.335   0.197  -1.101  1.00  0.00    -0.202 N   
ATOM     2   C10 UNL     1       1.614  -0.823  -1.664  1.00  0.00     0.046 A   
ATOM     3   C11 UNL     1       0.345  -0.310  -1.793  1.00  0.00     0.127 A   
ATOM     4   N3  UNL     1       0.326   0.969  -1.300  1.00  0.00    -0.132 NA  
ATOM     5   N4  UNL     1       1.539   1.262  -0.864  1.00  0.00    -0.075 NA  
ATOM     6   H12 UNL     1       2.063  -1.771  -1.925  1.00  0.00     0.083 HD  
ENDROOT
BRANCH   1   7
ATOM     7   C8  UNL     1       3.763   0.268  -0.781  1.00  0.00     0.155 C   
BRANCH   7   8
ATOM     8   C7  UNL     1       4.285  -1.065  -0.237  1.00  0.00    -0.020 A   
ATOM     9   C2  UNL     1       4.101  -1.427   1.123  1.00  0.00    -0.046 A   
ATOM     10  C3  UNL     1       4.589  -2.662   1.585  1.00  0.00     0.004 A   
ATOM     11  C4  UNL     1       5.242  -3.543   0.726  1.00  0.00     0.000 A   
ATOM     12  C6  UNL     1       4.943  -1.979  -1.085  1.00  0.00     0.006 A   
ATOM     13  C5  UNL     1       5.416  -3.203  -0.609  1.00  0.00     0.000 A   
ATOM     14  C1  UNL     1       3.415  -0.523   2.116  1.00  0.00     0.045 C   
ENDBRANCH   7   8
BRANCH   7  15
ATOM     15  C9  UNL     1       4.546   0.909  -1.948  1.00  0.00     0.185 C   
BRANCH  15  16
ATOM     16  O1  UNL     1       4.330   0.254  -3.200  1.00  0.00    -0.394 OA  
ATOM     17  H11 UNL     1       4.831   0.759  -3.869  1.00  0.00     0.210 HD  
ENDBRANCH  15  16
ENDBRANCH   7  15
ENDBRANCH   1   7
BRANCH   3  18
ATOM     18  C12 UNL     1      -0.911  -0.916  -2.334  1.00  0.00     0.117 C   
BRANCH  18  19
ATOM     19  N2  UNL     1      -2.113  -0.168  -1.822  1.00  0.00     0.249 N   
ATOM     20  H14 UNL     1      -2.942  -0.321  -2.402  1.00  0.00     0.199 HD  
ATOM     21  H15 UNL     1      -1.885   0.835  -1.900  1.00  0.00     0.199 HD  
BRANCH  19  22
ATOM     22  C13 UNL     1      -2.463  -0.424  -0.397  1.00  0.00     0.164 C   
BRANCH  22  23
ATOM     23  C14 UNL     1      -3.567   0.496   0.044  1.00  0.00    -0.002 A   
ATOM     24  C15 UNL     1      -4.908   0.049   0.079  1.00  0.00     0.012 A   
ATOM     25  C19 UNL     1      -3.272   1.830   0.379  1.00  0.00     0.045 A   
ATOM     26  C16 UNL     1      -5.943   0.916   0.451  1.00  0.00     0.037 A   
ATOM     27  C18 UNL     1      -4.316   2.659   0.735  1.00  0.00     0.109 A   
ATOM     28  C17 UNL     1      -5.614   2.215   0.770  1.00  0.00     0.108 A   
ATOM     29  O2  UNL     1      -4.205   3.969   1.077  1.00  0.00    -0.316 OA  
ATOM     30  O3  UNL     1      -6.485   3.190   1.141  1.00  0.00    -0.316 OA  
ATOM     31  C20 UNL     1      -5.586   4.303   1.338  1.00  0.00     0.337 C   
ENDBRANCH  22  23
ENDBRANCH  19  22
ENDBRANCH  18  19
BRANCH  18  32
ATOM     32  C21 UNL     1      -0.922  -0.949  -3.887  1.00  0.00     0.037 C   
ATOM     33  C22 UNL     1      -1.026   0.437  -4.537  1.00  0.00     0.014 C   
ATOM     34  C23 UNL     1      -2.030  -1.862  -4.425  1.00  0.00     0.014 C   
ENDBRANCH  18  32
ENDBRANCH   3  18
TORSDOF 9
