REMARK SMILES Fc1cccc(F)c1Cn1cc([C@@H]([NH2+]Cc2ccc3c(c2)OCO3)C2CCCC2)nn1
REMARK SMILES IDX 10 1 11 2 12 3 30 4 31 5 9 7 8 8 2 9 3 10 4 11 6 12 5 13
REMARK SMILES IDX 1 14 7 15 13 16 14 17 15 20 16 21 17 22 21 23 18 24 20 25
REMARK SMILES IDX 19 26 22 27 24 28 23 29 25 30 26 31 29 32 27 33 28 34
REMARK H PARENT 11 6 14 18 14 19
ROOT
ATOM     1   N1  UNL     1      -1.339   0.520   2.172  1.00  0.00    -0.208 N   
ATOM     2   C8  UNL     1      -0.919   0.831   0.907  1.00  0.00     0.046 A   
ATOM     3   C9  UNL     1      -0.797  -0.393   0.287  1.00  0.00     0.127 A   
ATOM     4   N3  UNL     1      -1.138  -1.383   1.172  1.00  0.00    -0.132 NA  
ATOM     5   N4  UNL     1      -1.458  -0.814   2.322  1.00  0.00    -0.076 NA  
ATOM     6   H6  UNL     1      -0.747   1.850   0.587  1.00  0.00     0.083 HD  
ENDROOT
BRANCH   1   7
ATOM     7   C7  UNL     1      -1.650   1.427   3.264  1.00  0.00     0.175 C   
BRANCH   7   8
ATOM     8   C6  UNL     1      -0.489   1.573   4.200  1.00  0.00     0.043 A   
ATOM     9   C1  UNL     1       0.630   2.329   3.851  1.00  0.00     0.131 A   
ATOM     10  C2  UNL     1       1.715   2.469   4.714  1.00  0.00     0.040 A   
ATOM     11  C3  UNL     1       1.693   1.839   5.958  1.00  0.00     0.006 A   
ATOM     12  C5  UNL     1      -0.489   0.947   5.446  1.00  0.00     0.131 A   
ATOM     13  C4  UNL     1       0.586   1.074   6.324  1.00  0.00     0.040 A   
ATOM     14  F1  UNL     1       0.671   2.934   2.654  1.00  0.00    -0.207 F   
ATOM     15  F2  UNL     1      -1.543   0.208   5.818  1.00  0.00    -0.207 F   
ENDBRANCH   7   8
ENDBRANCH   1   7
BRANCH   3  16
ATOM     16  C10 UNL     1      -0.330  -0.765  -1.082  1.00  0.00     0.117 C   
BRANCH  16  17
ATOM     17  N2  UNL     1       0.465  -2.054  -1.019  1.00  0.00     0.249 N   
ATOM     18  H8  UNL     1      -0.134  -2.733  -0.528  1.00  0.00     0.199 HD  
ATOM     19  H9  UNL     1       0.638  -2.420  -1.958  1.00  0.00     0.199 HD  
BRANCH  17  20
ATOM     20  C11 UNL     1       1.761  -1.997  -0.279  1.00  0.00     0.164 C   
BRANCH  20  21
ATOM     21  C12 UNL     1       2.788  -1.139  -0.962  1.00  0.00    -0.002 A   
ATOM     22  C13 UNL     1       3.433  -1.590  -2.138  1.00  0.00     0.012 A   
ATOM     23  C17 UNL     1       3.095   0.134  -0.450  1.00  0.00     0.045 A   
ATOM     24  C14 UNL     1       4.367  -0.785  -2.799  1.00  0.00     0.037 A   
ATOM     25  C16 UNL     1       4.022   0.901  -1.125  1.00  0.00     0.109 A   
ATOM     26  C15 UNL     1       4.638   0.457  -2.267  1.00  0.00     0.108 A   
ATOM     27  O1  UNL     1       4.429   2.145  -0.764  1.00  0.00    -0.316 OA  
ATOM     28  O2  UNL     1       5.508   1.368  -2.774  1.00  0.00    -0.316 OA  
ATOM     29  C18 UNL     1       5.407   2.421  -1.792  1.00  0.00     0.337 C   
ENDBRANCH  20  21
ENDBRANCH  17  20
ENDBRANCH  16  17
BRANCH  16  30
ATOM     30  C19 UNL     1      -1.509  -0.975  -2.055  1.00  0.00     0.043 C   
ATOM     31  C20 UNL     1      -2.354   0.284  -2.274  1.00  0.00     0.010 C   
ATOM     32  C23 UNL     1      -1.089  -1.347  -3.485  1.00  0.00     0.010 C   
ATOM     33  C21 UNL     1      -3.164  -0.059  -3.513  1.00  0.00     0.001 C   
ATOM     34  C22 UNL     1      -2.186  -0.810  -4.407  1.00  0.00     0.001 C   
ENDBRANCH  16  30
ENDBRANCH   3  16
TORSDOF 7
