REMARK SMILES COc1ccc(O)c(CCn2cc([C@@H]([NH2+]Cc3ccc4c(c3)OCO4)C(C)C)nn2)c1
REMARK SMILES IDX 11 1 12 2 13 3 29 4 30 5 10 7 9 8 8 9 3 10 4 11 31 12 5 13
REMARK SMILES IDX 6 14 2 15 1 16 7 17 14 19 15 20 16 23 17 24 18 25 22 26
REMARK SMILES IDX 19 27 21 28 20 29 23 30 25 31 24 32 26 33 27 34 28 35
REMARK H PARENT 12 6 7 18 15 21 15 22
ROOT
ATOM     1   N1  UNL     1      -0.800  -3.155   1.469  1.00  0.00    -0.212 N   
ATOM     2   C9  UNL     1      -1.446  -2.072   1.997  1.00  0.00     0.045 A   
ATOM     3   C10 UNL     1      -1.938  -1.412   0.893  1.00  0.00     0.127 A   
ATOM     4   N3  UNL     1      -1.617  -2.121  -0.236  1.00  0.00    -0.132 NA  
ATOM     5   N4  UNL     1      -0.926  -3.188   0.130  1.00  0.00    -0.076 NA  
ATOM     6   H11 UNL     1      -1.433  -1.851   3.055  1.00  0.00     0.083 HD  
ENDROOT
BRANCH   1   7
ATOM     7   C8  UNL     1       0.071  -4.089   2.154  1.00  0.00     0.139 C   
BRANCH   7   8
ATOM     8   C7  UNL     1       1.552  -3.786   1.913  1.00  0.00     0.060 C   
BRANCH   8   9
ATOM     9   C6  UNL     1       1.956  -2.408   2.391  1.00  0.00    -0.014 A   
ATOM     10  C2  UNL     1       2.410  -0.065   1.888  1.00  0.00     0.075 A   
ATOM     11  C3  UNL     1       2.625   0.185   3.243  1.00  0.00     0.036 A   
ATOM     12  C23 UNL     1       2.079  -1.356   1.469  1.00  0.00     0.040 A   
ATOM     13  C4  UNL     1       2.510  -0.853   4.172  1.00  0.00     0.036 A   
ATOM     14  C5  UNL     1       2.170  -2.135   3.744  1.00  0.00     0.075 A   
BRANCH  10  15
ATOM     15  O1  UNL     1       2.436   0.882   0.900  1.00  0.00    -0.349 OA  
ATOM     16  C1  UNL     1       3.324   1.975   1.131  1.00  0.00     0.203 C   
ENDBRANCH  10  15
BRANCH  14  17
ATOM     17  O2  UNL     1       2.014  -3.147   4.646  1.00  0.00    -0.361 OA  
ATOM     18  H6  UNL     1       2.393  -2.870   5.499  1.00  0.00     0.218 HD  
ENDBRANCH  14  17
ENDBRANCH   8   9
ENDBRANCH   7   8
ENDBRANCH   1   7
BRANCH   3  19
ATOM     19  C11 UNL     1      -2.599  -0.081   0.765  1.00  0.00     0.117 C   
BRANCH  19  20
ATOM     20  N2  UNL     1      -2.041   0.658  -0.426  1.00  0.00     0.249 N   
ATOM     21  H13 UNL     1      -2.065   0.007  -1.225  1.00  0.00     0.199 HD  
ATOM     22  H14 UNL     1      -2.630   1.458  -0.679  1.00  0.00     0.199 HD  
BRANCH  20  23
ATOM     23  C12 UNL     1      -0.626   1.109  -0.282  1.00  0.00     0.164 C   
BRANCH  23  24
ATOM     24  C13 UNL     1      -0.204   1.910  -1.481  1.00  0.00    -0.002 A   
ATOM     25  C14 UNL     1      -0.406   3.311  -1.516  1.00  0.00     0.012 A   
ATOM     26  C18 UNL     1       0.353   1.261  -2.596  1.00  0.00     0.045 A   
ATOM     27  C15 UNL     1      -0.050   4.058  -2.643  1.00  0.00     0.037 A   
ATOM     28  C17 UNL     1       0.693   2.028  -3.691  1.00  0.00     0.109 A   
ATOM     29  C16 UNL     1       0.497   3.387  -3.714  1.00  0.00     0.108 A   
ATOM     30  O3  UNL     1       1.242   1.562  -4.843  1.00  0.00    -0.316 OA  
ATOM     31  O4  UNL     1       0.897   3.949  -4.884  1.00  0.00    -0.316 OA  
ATOM     32  C19 UNL     1       1.386   2.789  -5.593  1.00  0.00     0.337 C   
ENDBRANCH  23  24
ENDBRANCH  20  23
ENDBRANCH  19  20
BRANCH  19  33
ATOM     33  C20 UNL     1      -4.142  -0.141   0.635  1.00  0.00     0.037 C   
ATOM     34  C21 UNL     1      -4.647  -0.919  -0.585  1.00  0.00     0.014 C   
ATOM     35  C22 UNL     1      -4.790  -0.699   1.908  1.00  0.00     0.014 C   
ENDBRANCH  19  33
ENDBRANCH   3  19
TORSDOF 10
