REMARK SMILES O=C(c1ccc(Cl)cc1)n1cc([C@@H]([NH2+]Cc2ccc3c(c2)OCO3)C2CCCC2)nn1
REMARK SMILES IDX 10 1 11 2 12 3 30 4 31 5 2 6 1 7 3 8 4 9 9 10 5 11 8 12 6 13
REMARK SMILES IDX 7 14 13 15 14 16 15 19 16 20 17 21 21 22 18 23 20 24 19 25
REMARK SMILES IDX 22 26 24 27 23 28 25 29 26 30 29 31 27 32 28 33
REMARK H PARENT 14 17 14 18
ROOT
ATOM     1   N1  UNL     1       2.933  -1.187   1.086  1.00  0.00    -0.143 N   
ATOM     2   C8  UNL     1       2.689  -0.907  -0.248  1.00  0.00     0.139 A   
ATOM     3   C9  UNL     1       1.470  -0.273  -0.267  1.00  0.00     0.128 A   
ATOM     4   N3  UNL     1       0.990  -0.199   1.013  1.00  0.00    -0.131 NA  
ATOM     5   N4  UNL     1       1.881  -0.750   1.823  1.00  0.00    -0.068 NA  
ENDROOT
BRANCH   1   6
ATOM     6   C1  UNL     1       4.070  -1.786   1.652  1.00  0.00     0.271 C   
ATOM     7   O1  UNL     1       4.969  -2.064   0.858  1.00  0.00    -0.269 OA  
BRANCH   6   8
ATOM     8   C2  UNL     1       4.282  -2.087   3.097  1.00  0.00     0.040 A   
ATOM     9   C3  UNL     1       3.233  -2.363   3.982  1.00  0.00     0.015 A   
ATOM     10  C7  UNL     1       5.605  -2.132   3.568  1.00  0.00     0.015 A   
ATOM     11  C4  UNL     1       3.503  -2.650   5.326  1.00  0.00     0.021 A   
ATOM     12  C6  UNL     1       5.872  -2.421   4.910  1.00  0.00     0.021 A   
ATOM     13  C5  UNL     1       4.818  -2.675   5.784  1.00  0.00     0.041 A   
ATOM     14  CL1 UNL     1       5.142  -3.028   7.435  1.00  0.00    -0.084 Cl  
ENDBRANCH   6   8
ENDBRANCH   1   6
BRANCH   3  15
ATOM     15  C10 UNL     1       0.670   0.285  -1.403  1.00  0.00     0.117 C   
BRANCH  15  16
ATOM     16  N2  UNL     1      -0.794   0.296  -1.062  1.00  0.00     0.249 N   
ATOM     17  H7  UNL     1      -1.321   0.955  -1.644  1.00  0.00     0.199 HD  
ATOM     18  H8  UNL     1      -0.880   0.642  -0.094  1.00  0.00     0.199 HD  
BRANCH  16  19
ATOM     19  C11 UNL     1      -1.472  -1.030  -1.119  1.00  0.00     0.164 C   
BRANCH  19  20
ATOM     20  C12 UNL     1      -2.919  -0.891  -0.738  1.00  0.00    -0.002 A   
ATOM     21  C13 UNL     1      -3.904  -0.679  -1.732  1.00  0.00     0.012 A   
ATOM     22  C17 UNL     1      -3.294  -0.908   0.617  1.00  0.00     0.045 A   
ATOM     23  C14 UNL     1      -5.247  -0.495  -1.384  1.00  0.00     0.037 A   
ATOM     24  C16 UNL     1      -4.626  -0.724   0.924  1.00  0.00     0.109 A   
ATOM     25  C15 UNL     1      -5.575  -0.522  -0.048  1.00  0.00     0.108 A   
ATOM     26  O2  UNL     1      -5.153  -0.707   2.177  1.00  0.00    -0.316 OA  
ATOM     27  O3  UNL     1      -6.819  -0.357   0.470  1.00  0.00    -0.316 OA  
ATOM     28  C18 UNL     1      -6.551  -0.481   1.884  1.00  0.00     0.337 C   
ENDBRANCH  19  20
ENDBRANCH  16  19
ENDBRANCH  15  16
BRANCH  15  29
ATOM     29  C19 UNL     1       1.153   1.698  -1.788  1.00  0.00     0.043 C   
ATOM     30  C20 UNL     1       0.826   2.823  -0.802  1.00  0.00     0.010 C   
ATOM     31  C23 UNL     1       0.573   2.241  -3.097  1.00  0.00     0.010 C   
ATOM     32  C21 UNL     1       1.125   4.091  -1.595  1.00  0.00     0.001 C   
ATOM     33  C22 UNL     1       0.890   3.734  -3.063  1.00  0.00     0.001 C   
ENDBRANCH  15  29
ENDBRANCH   3  15
TORSDOF 7
