REMARK SMILES Cc1cn([C@H]2C[C@H](n3cc([C@H](CC(C)C)[NH2+]Cc4ccc5c(c4)OCO5)nn3)[C@@H](CO)O2)c(=O)[nH]c1=O
REMARK SMILES IDX 8 1 9 2 10 3 27 4 28 5 7 7 5 8 6 9 32 10 29 11 4 12 2 13
REMARK SMILES IDX 3 14 36 15 35 16 33 17 1 18 37 19 34 21 30 22 31 23 11 25
REMARK SMILES IDX 12 26 13 27 14 28 15 29 16 30 17 33 18 34 19 35 23 36 20 37
REMARK SMILES IDX 22 38 21 39 24 40 26 41 25 42
REMARK H PARENT 9 6 35 20 31 24 16 31 16 32
ROOT
ATOM     1   N2  UNL     1       1.253  -0.243   0.155  1.00  0.00    -0.206 N   
ATOM     2   C7  UNL     1       0.356   0.785   0.237  1.00  0.00     0.046 A   
ATOM     3   C8  UNL     1       0.875   1.602   1.216  1.00  0.00     0.127 A   
ATOM     4   N4  UNL     1       2.051   1.069   1.673  1.00  0.00    -0.132 NA  
ATOM     5   N5  UNL     1       2.273  -0.058   1.016  1.00  0.00    -0.076 NA  
ATOM     6   H9  UNL     1      -0.547   0.816  -0.357  1.00  0.00     0.083 HD  
ENDROOT
BRANCH   1   7
ATOM     7   C6  UNL     1       1.173  -1.423  -0.678  1.00  0.00     0.135 C   
ATOM     8   C4  UNL     1       2.529  -3.144  -1.669  1.00  0.00     0.216 C   
ATOM     9   C5  UNL     1       2.379  -1.629  -1.577  1.00  0.00     0.080 C   
ATOM     10  O4  UNL     1       1.697  -3.755  -0.678  1.00  0.00    -0.352 OA  
ATOM     11  C22 UNL     1       1.087  -2.725   0.114  1.00  0.00     0.169 C   
BRANCH   8  12
ATOM     12  N1  UNL     1       2.218  -3.741  -2.970  1.00  0.00    -0.235 N   
ATOM     13  C2  UNL     1       2.921  -5.232  -4.703  1.00  0.00     0.026 A   
ATOM     14  C3  UNL     1       3.146  -4.590  -3.551  1.00  0.00     0.091 A   
ATOM     15  C25 UNL     1       1.623  -5.014  -5.378  1.00  0.00     0.247 A   
ATOM     16  N6  UNL     1       0.752  -4.185  -4.734  1.00  0.00    -0.235 N   
ATOM     17  C24 UNL     1       0.974  -3.533  -3.551  1.00  0.00     0.313 A   
ATOM     18  C1  UNL     1       3.892  -6.155  -5.362  1.00  0.00     0.051 C   
ATOM     19  O6  UNL     1       1.344  -5.545  -6.446  1.00  0.00    -0.272 OA  
ATOM     20  H33 UNL     1      -0.142  -4.040  -5.176  1.00  0.00     0.161 HD  
ATOM     21  O5  UNL     1       0.095  -2.813  -3.080  1.00  0.00    -0.253 OA  
ENDBRANCH   8  12
BRANCH  11  22
ATOM     22  C23 UNL     1      -0.350  -3.126   0.448  1.00  0.00     0.190 C   
BRANCH  22  23
ATOM     23  O3  UNL     1      -1.000  -2.119   1.219  1.00  0.00    -0.394 OA  
ATOM     24  H32 UNL     1      -1.894  -2.470   1.407  1.00  0.00     0.210 HD  
ENDBRANCH  22  23
ENDBRANCH  11  22
ENDBRANCH   1   7
BRANCH   3  25
ATOM     25  C9  UNL     1       0.328   2.834   1.849  1.00  0.00     0.114 C   
BRANCH  25  26
ATOM     26  C10 UNL     1       1.089   4.106   1.427  1.00  0.00     0.064 C   
BRANCH  26  27
ATOM     27  C11 UNL     1       0.996   4.452  -0.074  1.00  0.00    -0.012 C   
ATOM     28  C12 UNL     1       1.860   5.680  -0.375  1.00  0.00     0.007 C   
ATOM     29  C13 UNL     1      -0.443   4.712  -0.523  1.00  0.00     0.007 C   
ENDBRANCH  26  27
ENDBRANCH  25  26
BRANCH  25  30
ATOM     30  N3  UNL     1       0.444   2.737   3.359  1.00  0.00     0.249 N   
ATOM     31  H20 UNL     1       0.220   3.641   3.785  1.00  0.00     0.199 HD  
ATOM     32  H21 UNL     1       1.434   2.538   3.560  1.00  0.00     0.199 HD  
BRANCH  30  33
ATOM     33  C14 UNL     1      -0.359   1.662   4.019  1.00  0.00     0.164 C   
BRANCH  33  34
ATOM     34  C15 UNL     1      -1.836   1.784   3.772  1.00  0.00    -0.002 A   
ATOM     35  C16 UNL     1      -2.585   2.839   4.346  1.00  0.00     0.012 A   
ATOM     36  C20 UNL     1      -2.478   0.859   2.930  1.00  0.00     0.045 A   
ATOM     37  C17 UNL     1      -3.950   2.980   4.073  1.00  0.00     0.037 A   
ATOM     38  C19 UNL     1      -3.824   1.028   2.680  1.00  0.00     0.109 A   
ATOM     39  C18 UNL     1      -4.539   2.062   3.232  1.00  0.00     0.108 A   
ATOM     40  O1  UNL     1      -4.585   0.234   1.883  1.00  0.00    -0.316 OA  
ATOM     41  O2  UNL     1      -5.842   2.051   2.851  1.00  0.00    -0.316 OA  
ATOM     42  C21 UNL     1      -5.874   0.881   2.005  1.00  0.00     0.337 C   
ENDBRANCH  33  34
ENDBRANCH  30  33
ENDBRANCH  25  30
ENDBRANCH   3  25
TORSDOF 10
