REMARK SMILES COc1ccc([C@H](O)Cn2cc([C@H](CC(C)C)[NH2+]Cc3ccc4c(c3)OCO4)nn2)cc1
REMARK SMILES IDX 10 1 11 2 12 3 29 4 30 5 9 7 7 8 6 9 3 10 4 11 32 12 5 13
REMARK SMILES IDX 31 14 2 15 1 16 8 17 13 19 14 20 15 21 16 22 17 23 18 24
REMARK SMILES IDX 19 27 20 28 21 29 25 30 22 31 24 32 23 33 26 34 28 35 27 36
REMARK H PARENT 11 6 8 18 18 25 18 26
ROOT
ATOM     1   N1  UNL     1      -3.246   1.756   0.601  1.00  0.00    -0.209 N   
ATOM     2   C8  UNL     1      -3.031   0.430   0.863  1.00  0.00     0.045 A   
ATOM     3   C9  UNL     1      -2.449  -0.046  -0.291  1.00  0.00     0.127 A   
ATOM     4   N3  UNL     1      -2.417   0.963  -1.221  1.00  0.00    -0.132 NA  
ATOM     5   N4  UNL     1      -2.924   2.053  -0.669  1.00  0.00    -0.076 NA  
ATOM     6   H10 UNL     1      -3.197   0.003   1.842  1.00  0.00     0.083 HD  
ENDROOT
BRANCH   1   7
ATOM     7   C7  UNL     1      -3.474   2.807   1.569  1.00  0.00     0.170 C   
BRANCH   7   8
ATOM     8   C6  UNL     1      -2.211   3.642   1.851  1.00  0.00     0.164 C   
BRANCH   8   9
ATOM     9   C5  UNL     1      -0.956   2.798   2.023  1.00  0.00    -0.018 A   
ATOM     10  C2  UNL     1       1.226   1.053   2.161  1.00  0.00     0.075 A   
ATOM     11  C3  UNL     1       0.256   1.026   3.158  1.00  0.00     0.034 A   
ATOM     12  C24 UNL     1       1.131   1.953   1.103  1.00  0.00     0.034 A   
ATOM     13  C4  UNL     1      -0.822   1.910   3.101  1.00  0.00     0.009 A   
ATOM     14  C23 UNL     1       0.043   2.824   1.036  1.00  0.00     0.009 A   
BRANCH  10  15
ATOM     15  O1  UNL     1       2.208   0.102   2.205  1.00  0.00    -0.349 OA  
ATOM     16  C1  UNL     1       3.497   0.700   2.374  1.00  0.00     0.203 C   
ENDBRANCH  10  15
ENDBRANCH   8   9
BRANCH   8  17
ATOM     17  O2  UNL     1      -2.419   4.409   3.036  1.00  0.00    -0.387 OA  
ATOM     18  H7  UNL     1      -1.564   4.808   3.281  1.00  0.00     0.211 HD  
ENDBRANCH   8  17
ENDBRANCH   7   8
ENDBRANCH   1   7
BRANCH   3  19
ATOM     19  C10 UNL     1      -1.725  -1.317  -0.598  1.00  0.00     0.114 C   
BRANCH  19  20
ATOM     20  C11 UNL     1      -1.998  -2.480   0.368  1.00  0.00     0.064 C   
BRANCH  20  21
ATOM     21  C12 UNL     1      -3.444  -3.024   0.335  1.00  0.00    -0.012 C   
ATOM     22  C13 UNL     1      -3.614  -4.101   1.410  1.00  0.00     0.007 C   
ATOM     23  C14 UNL     1      -3.818  -3.598  -1.031  1.00  0.00     0.007 C   
ENDBRANCH  20  21
ENDBRANCH  19  20
BRANCH  19  24
ATOM     24  N2  UNL     1      -0.250  -0.994  -0.565  1.00  0.00     0.249 N   
ATOM     25  H21 UNL     1       0.098  -0.950   0.404  1.00  0.00     0.199 HD  
ATOM     26  H22 UNL     1      -0.162  -0.022  -0.900  1.00  0.00     0.199 HD  
BRANCH  24  27
ATOM     27  C15 UNL     1       0.637  -1.837  -1.402  1.00  0.00     0.164 C   
BRANCH  27  28
ATOM     28  C16 UNL     1       2.044  -1.307  -1.396  1.00  0.00    -0.002 A   
ATOM     29  C17 UNL     1       3.040  -1.925  -0.605  1.00  0.00     0.012 A   
ATOM     30  C21 UNL     1       2.368  -0.163  -2.147  1.00  0.00     0.045 A   
ATOM     31  C18 UNL     1       4.344  -1.419  -0.566  1.00  0.00     0.037 A   
ATOM     32  C20 UNL     1       3.660   0.315  -2.079  1.00  0.00     0.109 A   
ATOM     33  C19 UNL     1       4.620  -0.295  -1.311  1.00  0.00     0.108 A   
ATOM     34  O3  UNL     1       4.131   1.413  -2.724  1.00  0.00    -0.316 OA  
ATOM     35  O4  UNL     1       5.817   0.342  -1.378  1.00  0.00    -0.316 OA  
ATOM     36  C22 UNL     1       5.515   1.404  -2.308  1.00  0.00     0.337 C   
ENDBRANCH  27  28
ENDBRANCH  24  27
ENDBRANCH  19  24
ENDBRANCH   3  19
TORSDOF 11
