REMARK SMILES COc1ccc([C@@H](O)Cn2cc([C@H](CC(C)C)[NH2+]Cc3ccc4c(c3)OCO4)nn2)cc1
REMARK SMILES IDX 10 1 11 2 12 3 29 4 30 5 9 7 7 8 6 9 3 10 4 11 32 12 5 13
REMARK SMILES IDX 31 14 2 15 1 16 8 17 13 19 14 20 15 21 16 22 17 23 18 24
REMARK SMILES IDX 19 27 20 28 21 29 25 30 22 31 24 32 23 33 26 34 28 35 27 36
REMARK H PARENT 11 6 8 18 18 25 18 26
ROOT
ATOM     1   N1  UNL     1       0.623   1.090  -0.300  1.00  0.00    -0.209 N   
ATOM     2   C8  UNL     1      -0.464   0.694   0.429  1.00  0.00     0.045 A   
ATOM     3   C9  UNL     1      -0.257  -0.654   0.622  1.00  0.00     0.127 A   
ATOM     4   N3  UNL     1       0.890  -1.032  -0.028  1.00  0.00    -0.132 NA  
ATOM     5   N4  UNL     1       1.414   0.042  -0.594  1.00  0.00    -0.076 NA  
ATOM     6   H10 UNL     1      -1.220   1.390   0.763  1.00  0.00     0.083 HD  
ENDROOT
BRANCH   1   7
ATOM     7   C7  UNL     1       0.951   2.422  -0.768  1.00  0.00     0.170 C   
BRANCH   7   8
ATOM     8   C6  UNL     1       1.705   3.218   0.301  1.00  0.00     0.164 C   
BRANCH   8   9
ATOM     9   C5  UNL     1       2.284   4.499  -0.264  1.00  0.00    -0.018 A   
ATOM     10  C2  UNL     1       3.375   6.866  -1.343  1.00  0.00     0.075 A   
ATOM     11  C3  UNL     1       1.997   6.750  -1.160  1.00  0.00     0.034 A   
ATOM     12  C24 UNL     1       4.205   5.801  -0.981  1.00  0.00     0.034 A   
ATOM     13  C4  UNL     1       1.456   5.574  -0.626  1.00  0.00     0.009 A   
ATOM     14  C23 UNL     1       3.668   4.626  -0.445  1.00  0.00     0.009 A   
BRANCH  10  15
ATOM     15  O1  UNL     1       4.030   7.950  -1.859  1.00  0.00    -0.349 OA  
ATOM     16  C1  UNL     1       3.230   9.065  -2.238  1.00  0.00     0.203 C   
ENDBRANCH  10  15
ENDBRANCH   8   9
BRANCH   8  17
ATOM     17  O2  UNL     1       0.818   3.544   1.380  1.00  0.00    -0.387 OA  
ATOM     18  H7  UNL     1       1.239   4.270   1.880  1.00  0.00     0.211 HD  
ENDBRANCH   8  17
ENDBRANCH   7   8
ENDBRANCH   1   7
BRANCH   3  19
ATOM     19  C10 UNL     1      -1.071  -1.682   1.338  1.00  0.00     0.114 C   
BRANCH  19  20
ATOM     20  C11 UNL     1      -0.525  -1.994   2.746  1.00  0.00     0.064 C   
BRANCH  20  21
ATOM     21  C12 UNL     1      -0.529  -0.809   3.735  1.00  0.00    -0.012 C   
ATOM     22  C13 UNL     1      -1.935  -0.249   3.966  1.00  0.00     0.007 C   
ATOM     23  C14 UNL     1       0.075  -1.250   5.074  1.00  0.00     0.007 C   
ENDBRANCH  20  21
ENDBRANCH  19  20
BRANCH  19  24
ATOM     24  N2  UNL     1      -1.046  -2.956   0.523  1.00  0.00     0.249 N   
ATOM     25  H21 UNL     1      -0.132  -3.412   0.649  1.00  0.00     0.199 HD  
ATOM     26  H22 UNL     1      -1.037  -2.687  -0.472  1.00  0.00     0.199 HD  
BRANCH  24  27
ATOM     27  C15 UNL     1      -2.151  -3.916   0.745  1.00  0.00     0.164 C   
BRANCH  27  28
ATOM     28  C16 UNL     1      -2.015  -5.107  -0.161  1.00  0.00    -0.002 A   
ATOM     29  C17 UNL     1      -2.603  -5.092  -1.451  1.00  0.00     0.012 A   
ATOM     30  C21 UNL     1      -1.263  -6.224   0.247  1.00  0.00     0.045 A   
ATOM     31  C18 UNL     1      -2.458  -6.181  -2.319  1.00  0.00     0.037 A   
ATOM     32  C20 UNL     1      -1.141  -7.281  -0.633  1.00  0.00     0.109 A   
ATOM     33  C19 UNL     1      -1.724  -7.261  -1.879  1.00  0.00     0.108 A   
ATOM     34  O3  UNL     1      -0.457  -8.431  -0.396  1.00  0.00    -0.316 OA  
ATOM     35  O4  UNL     1      -1.485  -8.399  -2.580  1.00  0.00    -0.316 OA  
ATOM     36  C22 UNL     1      -0.698  -9.150  -1.628  1.00  0.00     0.337 C   
ENDBRANCH  27  28
ENDBRANCH  24  27
ENDBRANCH  19  24
ENDBRANCH   3  19
TORSDOF 11
