REMARK SMILES Cc1cc(CCn2cc([C@@H]([NH2+]Cc3ccc4c(c3)OCO4)C3CCCCC3)nn2)cc(Cl)n1
REMARK SMILES IDX 7 1 8 2 9 3 28 4 29 5 6 7 5 8 4 9 2 10 3 11 33 12 31 13
REMARK SMILES IDX 30 14 1 15 32 16 10 17 11 18 12 21 13 22 14 23 18 24 15 25
REMARK SMILES IDX 17 26 16 27 19 28 21 29 20 30 22 31 23 32 27 33 24 34 26 35
REMARK SMILES IDX 25 36
REMARK H PARENT 8 6 11 19 11 20
ROOT
ATOM     1   N1  UNL     1      -0.770   2.939   0.248  1.00  0.00    -0.212 N   
ATOM     2   C7  UNL     1      -0.612   1.610  -0.028  1.00  0.00     0.045 A   
ATOM     3   C8  UNL     1       0.434   1.579  -0.924  1.00  0.00     0.127 A   
ATOM     4   N3  UNL     1       0.839   2.865  -1.184  1.00  0.00    -0.132 NA  
ATOM     5   N4  UNL     1       0.088   3.685  -0.470  1.00  0.00    -0.076 NA  
ATOM     6   H9  UNL     1      -1.224   0.844   0.430  1.00  0.00     0.083 HD  
ENDROOT
BRANCH   1   7
ATOM     7   C6  UNL     1      -1.724   3.569   1.139  1.00  0.00     0.139 C   
BRANCH   7   8
ATOM     8   C5  UNL     1      -1.104   3.999   2.469  1.00  0.00     0.057 C   
BRANCH   8   9
ATOM     9   C4  UNL     1      -0.716   2.828   3.338  1.00  0.00    -0.042 A   
ATOM     10  C2  UNL     1      -1.291   1.031   4.839  1.00  0.00     0.039 A   
ATOM     11  C3  UNL     1      -1.681   2.129   4.073  1.00  0.00     0.027 A   
ATOM     12  N5  UNL     1      -0.011   0.601   4.893  1.00  0.00    -0.241 NA  
ATOM     13  C25 UNL     1       0.904   1.306   4.201  1.00  0.00     0.129 A   
ATOM     14  C24 UNL     1       0.613   2.406   3.413  1.00  0.00     0.044 A   
ATOM     15  C1  UNL     1      -2.303   0.275   5.648  1.00  0.00     0.067 C   
ATOM     16  CL1 UNL     1       2.508   0.718   4.332  1.00  0.00    -0.062 Cl  
ENDBRANCH   8   9
ENDBRANCH   7   8
ENDBRANCH   1   7
BRANCH   3  17
ATOM     17  C9  UNL     1       1.078   0.446  -1.654  1.00  0.00     0.117 C   
BRANCH  17  18
ATOM     18  N2  UNL     1       1.435   0.880  -3.061  1.00  0.00     0.249 N   
ATOM     19  H11 UNL     1       1.889   1.800  -2.967  1.00  0.00     0.199 HD  
ATOM     20  H12 UNL     1       2.123   0.240  -3.468  1.00  0.00     0.199 HD  
BRANCH  18  21
ATOM     21  C10 UNL     1       0.298   1.049  -4.011  1.00  0.00     0.164 C   
BRANCH  21  22
ATOM     22  C11 UNL     1      -0.295  -0.263  -4.445  1.00  0.00    -0.002 A   
ATOM     23  C12 UNL     1       0.396  -1.091  -5.364  1.00  0.00     0.012 A   
ATOM     24  C16 UNL     1      -1.529  -0.687  -3.922  1.00  0.00     0.045 A   
ATOM     25  C13 UNL     1      -0.132  -2.328  -5.752  1.00  0.00     0.037 A   
ATOM     26  C15 UNL     1      -2.021  -1.911  -4.328  1.00  0.00     0.109 A   
ATOM     27  C14 UNL     1      -1.342  -2.709  -5.215  1.00  0.00     0.108 A   
ATOM     28  O1  UNL     1      -3.191  -2.468  -3.917  1.00  0.00    -0.316 OA  
ATOM     29  O2  UNL     1      -1.999  -3.869  -5.476  1.00  0.00    -0.316 OA  
ATOM     30  C17 UNL     1      -3.196  -3.692  -4.689  1.00  0.00     0.337 C   
ENDBRANCH  21  22
ENDBRANCH  18  21
ENDBRANCH  17  18
BRANCH  17  31
ATOM     31  C18 UNL     1       2.361  -0.109  -0.980  1.00  0.00     0.043 C   
ATOM     32  C19 UNL     1       3.516   0.905  -0.865  1.00  0.00     0.010 C   
ATOM     33  C23 UNL     1       2.064  -0.724   0.401  1.00  0.00     0.010 C   
ATOM     34  C20 UNL     1       4.765   0.257  -0.268  1.00  0.00     0.001 C   
ATOM     35  C22 UNL     1       3.310  -1.368   1.007  1.00  0.00     0.001 C   
ATOM     36  C21 UNL     1       4.477  -0.387   1.083  1.00  0.00     0.000 C   
ENDBRANCH  17  31
ENDBRANCH   3  17
TORSDOF 8
