REMARK SMILES COc1ccc(-n2cc([C@@H]([NH2+]Cc3ccc4c(c3)OCO4)C3CCCC3)nn2)cc1
REMARK SMILES IDX 7 1 8 2 9 3 27 4 28 5 6 6 3 7 4 8 30 9 5 10 29 11 2 12 1 13
REMARK SMILES IDX 10 14 11 15 12 18 13 19 14 20 18 21 15 22 17 23 16 24 19 25
REMARK SMILES IDX 21 26 20 27 22 28 23 29 26 30 24 31 25 32
REMARK H PARENT 11 16 11 17
ROOT
ATOM     1   N1  UNL     1       0.996   1.818   2.144  1.00  0.00    -0.181 N   
ATOM     2   C6  UNL     1       0.069   1.534   1.159  1.00  0.00     0.135 A   
ATOM     3   C7  UNL     1      -0.249   0.206   1.338  1.00  0.00     0.127 A   
ATOM     4   N3  UNL     1       0.482  -0.292   2.379  1.00  0.00    -0.131 NA  
ATOM     5   N4  UNL     1       1.243   0.682   2.848  1.00  0.00    -0.071 NA  
ENDROOT
BRANCH   1   6
ATOM     6   C5  UNL     1       1.649   3.042   2.434  1.00  0.00     0.058 A   
ATOM     7   C2  UNL     1       2.967   5.453   3.038  1.00  0.00     0.075 A   
ATOM     8   C3  UNL     1       3.231   4.296   3.773  1.00  0.00     0.035 A   
ATOM     9   C23 UNL     1       2.039   5.401   1.998  1.00  0.00     0.035 A   
ATOM     10  C4  UNL     1       2.579   3.096   3.479  1.00  0.00     0.028 A   
ATOM     11  C22 UNL     1       1.379   4.201   1.694  1.00  0.00     0.028 A   
BRANCH   7  12
ATOM     12  O1  UNL     1       3.674   6.553   3.432  1.00  0.00    -0.349 OA  
ATOM     13  C1  UNL     1       3.432   7.768   2.733  1.00  0.00     0.203 C   
ENDBRANCH   7  12
ENDBRANCH   1   6
BRANCH   3  14
ATOM     14  C8  UNL     1      -1.173  -0.700   0.589  1.00  0.00     0.117 C   
BRANCH  14  15
ATOM     15  N2  UNL     1      -0.599  -2.103   0.548  1.00  0.00     0.249 N   
ATOM     16  H8  UNL     1      -0.370  -2.352   1.520  1.00  0.00     0.199 HD  
ATOM     17  H9  UNL     1      -1.303  -2.771   0.224  1.00  0.00     0.199 HD  
BRANCH  15  18
ATOM     18  C9  UNL     1       0.642  -2.291  -0.264  1.00  0.00     0.164 C   
BRANCH  18  19
ATOM     19  C10 UNL     1       0.423  -2.047  -1.731  1.00  0.00    -0.002 A   
ATOM     20  C11 UNL     1       0.990  -0.911  -2.357  1.00  0.00     0.012 A   
ATOM     21  C15 UNL     1      -0.369  -2.930  -2.487  1.00  0.00     0.045 A   
ATOM     22  C12 UNL     1       0.765  -0.650  -3.713  1.00  0.00     0.037 A   
ATOM     23  C14 UNL     1      -0.571  -2.642  -3.820  1.00  0.00     0.109 A   
ATOM     24  C13 UNL     1      -0.022  -1.534  -4.417  1.00  0.00     0.108 A   
ATOM     25  O2  UNL     1      -1.312  -3.383  -4.684  1.00  0.00    -0.316 OA  
ATOM     26  O3  UNL     1      -0.347  -1.438  -5.731  1.00  0.00    -0.316 OA  
ATOM     27  C16 UNL     1      -1.139  -2.633  -5.909  1.00  0.00     0.337 C   
ENDBRANCH  18  19
ENDBRANCH  15  18
ENDBRANCH  14  15
BRANCH  14  28
ATOM     28  C17 UNL     1      -2.568  -0.771   1.245  1.00  0.00     0.043 C   
ATOM     29  C18 UNL     1      -3.566  -1.672   0.503  1.00  0.00     0.010 C   
ATOM     30  C21 UNL     1      -3.302   0.574   1.271  1.00  0.00     0.010 C   
ATOM     31  C19 UNL     1      -4.956  -1.131   0.841  1.00  0.00     0.001 C   
ATOM     32  C20 UNL     1      -4.736   0.180   1.585  1.00  0.00     0.001 C   
ENDBRANCH  14  28
ENDBRANCH   3  14
TORSDOF 7
