REMARK SMILES Oc1cccc(Cl)c1CCn1cc([C@@H]([NH2+]Cc2ccc3c(c2)OCO3)C2CCCC2)nn1
REMARK SMILES IDX 11 1 12 2 13 3 31 4 32 5 10 7 9 8 8 9 2 10 3 11 4 12 6 13
REMARK SMILES IDX 5 14 7 15 1 16 14 18 15 19 16 22 17 23 18 24 22 25 19 26
REMARK SMILES IDX 21 27 20 28 23 29 25 30 24 31 26 32 27 33 30 34 28 35 29 36
REMARK H PARENT 12 6 1 17 15 20 15 21
ROOT
ATOM     1   N1  UNL     1       1.461  -2.195   1.707  1.00  0.00    -0.212 N   
ATOM     2   C9  UNL     1       1.642  -2.007   0.365  1.00  0.00     0.045 A   
ATOM     3   C10 UNL     1       1.558  -0.641   0.208  1.00  0.00     0.127 A   
ATOM     4   N3  UNL     1       1.363  -0.058   1.434  1.00  0.00    -0.132 NA  
ATOM     5   N4  UNL     1       1.300  -1.019   2.340  1.00  0.00    -0.076 NA  
ATOM     6   H9  UNL     1       1.779  -2.830  -0.323  1.00  0.00     0.083 HD  
ENDROOT
BRANCH   1   7
ATOM     7   C8  UNL     1       1.422  -3.446   2.434  1.00  0.00     0.139 C   
BRANCH   7   8
ATOM     8   C7  UNL     1       0.113  -4.215   2.234  1.00  0.00     0.061 C   
BRANCH   8   9
ATOM     9   C6  UNL     1      -1.078  -3.572   2.912  1.00  0.00     0.002 A   
ATOM     10  C1  UNL     1      -1.236  -3.716   4.300  1.00  0.00     0.076 A   
ATOM     11  C2  UNL     1      -2.314  -3.152   4.980  1.00  0.00     0.033 A   
ATOM     12  C3  UNL     1      -3.265  -2.421   4.274  1.00  0.00     0.004 A   
ATOM     13  C5  UNL     1      -2.043  -2.820   2.220  1.00  0.00     0.046 A   
ATOM     14  C4  UNL     1      -3.129  -2.253   2.898  1.00  0.00     0.021 A   
ATOM     15  CL1 UNL     1      -1.948  -2.537   0.515  1.00  0.00    -0.084 Cl  
BRANCH  10  16
ATOM     16  O1  UNL     1      -0.295  -4.429   4.992  1.00  0.00    -0.361 OA  
ATOM     17  H1  UNL     1      -0.562  -4.485   5.926  1.00  0.00     0.218 HD  
ENDBRANCH  10  16
ENDBRANCH   8   9
ENDBRANCH   7   8
ENDBRANCH   1   7
BRANCH   3  18
ATOM     18  C11 UNL     1       1.583   0.212  -1.016  1.00  0.00     0.117 C   
BRANCH  18  19
ATOM     19  N2  UNL     1       0.631   1.371  -0.852  1.00  0.00     0.249 N   
ATOM     20  H11 UNL     1       0.861   1.821   0.047  1.00  0.00     0.199 HD  
ATOM     21  H12 UNL     1       0.768   2.080  -1.578  1.00  0.00     0.199 HD  
BRANCH  19  22
ATOM     22  C12 UNL     1      -0.816   1.013  -0.807  1.00  0.00     0.164 C   
BRANCH  22  23
ATOM     23  C13 UNL     1      -1.655   2.260  -0.753  1.00  0.00    -0.002 A   
ATOM     24  C14 UNL     1      -2.164   2.833  -1.943  1.00  0.00     0.012 A   
ATOM     25  C18 UNL     1      -1.886   2.897   0.480  1.00  0.00     0.045 A   
ATOM     26  C15 UNL     1      -2.897   4.024  -1.908  1.00  0.00     0.037 A   
ATOM     27  C17 UNL     1      -2.611   4.071   0.478  1.00  0.00     0.109 A   
ATOM     28  C16 UNL     1      -3.102   4.619  -0.682  1.00  0.00     0.108 A   
ATOM     29  O2  UNL     1      -2.918   4.814   1.574  1.00  0.00    -0.316 OA  
ATOM     30  O3  UNL     1      -3.779   5.776  -0.462  1.00  0.00    -0.316 OA  
ATOM     31  C19 UNL     1      -3.666   5.895   0.973  1.00  0.00     0.337 C   
ENDBRANCH  22  23
ENDBRANCH  19  22
ENDBRANCH  18  19
BRANCH  18  32
ATOM     32  C20 UNL     1       2.990   0.776  -1.300  1.00  0.00     0.043 C   
ATOM     33  C21 UNL     1       3.082   1.636  -2.566  1.00  0.00     0.010 C   
ATOM     34  C24 UNL     1       4.035  -0.307  -1.586  1.00  0.00     0.010 C   
ATOM     35  C22 UNL     1       4.564   1.649  -2.932  1.00  0.00     0.001 C   
ATOM     36  C23 UNL     1       5.191   0.452  -2.222  1.00  0.00     0.001 C   
ENDBRANCH  18  32
ENDBRANCH   3  18
TORSDOF 9
