REMARK SMILES CC(C)[C@H]([NH2+]Cc1ccc2c(c1)OCO2)c1cn(Cc2ccc(N)cc2)nn1
REMARK SMILES IDX 16 1 17 2 18 3 27 4 28 5 4 7 2 8 1 9 3 10 5 11 6 14 7 15
REMARK SMILES IDX 8 16 12 17 9 18 11 19 10 20 13 21 15 22 14 23 19 24 20 25
REMARK SMILES IDX 21 26 26 27 22 28 25 29 23 30 24 31
REMARK H PARENT 17 6 5 12 5 13 24 32 24 33
ROOT
ATOM     1   C13 UNL     1       1.083  -0.019   1.592  1.00  0.00     0.127 A   
ATOM     2   C14 UNL     1      -0.063  -0.781   1.562  1.00  0.00     0.046 A   
ATOM     3   N2  UNL     1      -0.977  -0.031   2.250  1.00  0.00    -0.208 N   
ATOM     4   N4  UNL     1      -0.414   1.102   2.714  1.00  0.00    -0.076 NA  
ATOM     5   N5  UNL     1       0.851   1.116   2.325  1.00  0.00    -0.132 NA  
ATOM     6   H18 UNL     1      -0.322  -1.715   1.082  1.00  0.00     0.083 HD  
ENDROOT
BRANCH   1   7
ATOM     7   C4  UNL     1       2.391  -0.204   0.895  1.00  0.00     0.117 C   
BRANCH   7   8
ATOM     8   C2  UNL     1       3.523  -0.634   1.872  1.00  0.00     0.037 C   
ATOM     9   C1  UNL     1       4.886  -0.767   1.180  1.00  0.00     0.014 C   
ATOM     10  C3  UNL     1       3.193  -1.973   2.550  1.00  0.00     0.014 C   
ENDBRANCH   7   8
BRANCH   7  11
ATOM     11  N1  UNL     1       2.796   1.087   0.207  1.00  0.00     0.249 N   
ATOM     12  H9  UNL     1       3.691   0.966  -0.271  1.00  0.00     0.199 HD  
ATOM     13  H10 UNL     1       2.930   1.786   0.949  1.00  0.00     0.199 HD  
BRANCH  11  14
ATOM     14  C5  UNL     1       1.822   1.671  -0.770  1.00  0.00     0.164 C   
BRANCH  14  15
ATOM     15  C6  UNL     1       1.427   0.733  -1.877  1.00  0.00    -0.002 A   
ATOM     16  C7  UNL     1       0.077   0.328  -2.012  1.00  0.00     0.012 A   
ATOM     17  C11 UNL     1       2.385   0.250  -2.785  1.00  0.00     0.045 A   
ATOM     18  C8  UNL     1      -0.316  -0.555  -3.023  1.00  0.00     0.037 A   
ATOM     19  C10 UNL     1       1.965  -0.624  -3.768  1.00  0.00     0.109 A   
ATOM     20  C9  UNL     1       0.654  -1.016  -3.883  1.00  0.00     0.108 A   
ATOM     21  O1  UNL     1       2.762  -1.188  -4.713  1.00  0.00    -0.316 OA  
ATOM     22  O2  UNL     1       0.460  -1.877  -4.916  1.00  0.00    -0.316 OA  
ATOM     23  C12 UNL     1       1.794  -1.958  -5.463  1.00  0.00     0.337 C   
ENDBRANCH  14  15
ENDBRANCH  11  14
ENDBRANCH   7  11
ENDBRANCH   1   7
BRANCH   3  24
ATOM     24  C15 UNL     1      -2.405  -0.270   2.389  1.00  0.00     0.169 C   
BRANCH  24  25
ATOM     25  C16 UNL     1      -3.088  -0.100   1.054  1.00  0.00    -0.028 A   
ATOM     26  C17 UNL     1      -3.411  -1.214   0.268  1.00  0.00     0.007 A   
ATOM     27  C21 UNL     1      -3.335   1.181   0.541  1.00  0.00     0.007 A   
ATOM     28  C18 UNL     1      -3.964  -1.045  -1.004  1.00  0.00     0.023 A   
ATOM     29  C20 UNL     1      -3.889   1.340  -0.732  1.00  0.00     0.023 A   
ATOM     30  C19 UNL     1      -4.246   0.230  -1.499  1.00  0.00     0.023 A   
BRANCH  30  31
ATOM     31  N3  UNL     1      -4.657   0.394  -2.826  1.00  0.00    -0.358 N   
ATOM     32  H23 UNL     1      -5.135   1.274  -3.003  1.00  0.00     0.143 HD  
ATOM     33  H24 UNL     1      -5.186  -0.393  -3.193  1.00  0.00     0.143 HD  
ENDBRANCH  30  31
ENDBRANCH  24  25
ENDBRANCH   3  24
TORSDOF 8
