REMARK SMILES CC(C)C[C@H]([NH2+]Cc1ccc2c(c1)OCO2)c1cn(CCc2scnc2C2CC2)nn1
REMARK SMILES IDX 17 1 18 2 19 3 30 4 31 5 5 7 4 8 2 9 1 10 3 11 6 12 7 15
REMARK SMILES IDX 8 16 9 17 13 18 10 19 12 20 11 21 14 22 16 23 15 24 20 25
REMARK SMILES IDX 21 26 22 27 23 28 26 29 24 30 25 31 27 32 28 33 29 34
REMARK H PARENT 18 6 6 13 6 14
ROOT
ATOM     1   C14 UNL     1      -0.017  -0.449   0.832  1.00  0.00     0.127 A   
ATOM     2   C15 UNL     1       0.149  -0.419   2.201  1.00  0.00     0.045 A   
ATOM     3   N2  UNL     1      -1.040   0.077   2.666  1.00  0.00    -0.212 N   
ATOM     4   N4  UNL     1      -1.940   0.170   1.672  1.00  0.00    -0.076 NA  
ATOM     5   N5  UNL     1      -1.320  -0.130   0.540  1.00  0.00    -0.132 NA  
ATOM     6   H20 UNL     1       1.009  -0.537   2.846  1.00  0.00     0.083 HD  
ENDROOT
BRANCH   1   7
ATOM     7   C5  UNL     1       0.975  -0.512  -0.295  1.00  0.00     0.114 C   
BRANCH   7   8
ATOM     8   C4  UNL     1       2.359  -1.077   0.075  1.00  0.00     0.064 C   
BRANCH   8   9
ATOM     9   C2  UNL     1       2.491  -2.619   0.099  1.00  0.00    -0.012 C   
ATOM     10  C1  UNL     1       1.602  -3.309   1.130  1.00  0.00     0.007 C   
ATOM     11  C3  UNL     1       2.276  -3.241  -1.283  1.00  0.00     0.007 C   
ENDBRANCH   8   9
ENDBRANCH   7   8
BRANCH   7  12
ATOM     12  N1  UNL     1       1.121   0.923  -0.771  1.00  0.00     0.249 N   
ATOM     13  H11 UNL     1       1.542   1.513  -0.029  1.00  0.00     0.199 HD  
ATOM     14  H12 UNL     1       0.161   1.286  -0.828  1.00  0.00     0.199 HD  
BRANCH  12  15
ATOM     15  C6  UNL     1       1.775   1.212  -2.068  1.00  0.00     0.164 C   
BRANCH  15  16
ATOM     16  C7  UNL     1       1.134   0.516  -3.235  1.00  0.00    -0.002 A   
ATOM     17  C8  UNL     1      -0.183   0.849  -3.637  1.00  0.00     0.012 A   
ATOM     18  C12 UNL     1       1.831  -0.492  -3.923  1.00  0.00     0.045 A   
ATOM     19  C9  UNL     1      -0.801   0.180  -4.699  1.00  0.00     0.037 A   
ATOM     20  C11 UNL     1       1.192  -1.132  -4.964  1.00  0.00     0.109 A   
ATOM     21  C10 UNL     1      -0.087  -0.807  -5.341  1.00  0.00     0.108 A   
ATOM     22  O1  UNL     1       1.720  -2.130  -5.720  1.00  0.00    -0.316 OA  
ATOM     23  O2  UNL     1      -0.527  -1.559  -6.383  1.00  0.00    -0.316 OA  
ATOM     24  C13 UNL     1       0.630  -2.387  -6.634  1.00  0.00     0.337 C   
ENDBRANCH  15  16
ENDBRANCH  12  15
ENDBRANCH   7  12
ENDBRANCH   1   7
BRANCH   3  25
ATOM     25  C16 UNL     1      -1.245   0.791   3.914  1.00  0.00     0.139 C   
BRANCH  25  26
ATOM     26  C17 UNL     1      -1.071   2.317   3.764  1.00  0.00     0.066 C   
BRANCH  26  27
ATOM     27  C18 UNL     1       0.180   2.680   3.008  1.00  0.00     0.014 A   
ATOM     28  S1  UNL     1       1.727   2.605   3.752  1.00  0.00    -0.080 S   
ATOM     29  C20 UNL     1       0.341   3.047   1.684  1.00  0.00     0.054 A   
ATOM     30  C19 UNL     1       2.458   2.883   2.224  1.00  0.00     0.157 A   
ATOM     31  N3  UNL     1       1.637   2.980   1.195  1.00  0.00    -0.253 NA  
BRANCH  29  32
ATOM     32  C21 UNL     1      -0.853   3.392   0.738  1.00  0.00     0.039 C   
ATOM     33  C22 UNL     1      -0.595   4.165  -0.530  1.00  0.00     0.011 C   
ATOM     34  C23 UNL     1      -1.268   4.836   0.632  1.00  0.00     0.011 C   
ENDBRANCH  29  32
ENDBRANCH  26  27
ENDBRANCH  25  26
ENDBRANCH   3  25
TORSDOF 10
