REMARK SMILES COc1cccc(CCn2cc([C@@H]([NH2+]Cc3ccc4c(c3)OCO4)C3CCCC3)nn2)c1
REMARK SMILES IDX 10 1 11 2 12 3 30 4 31 5 9 7 8 8 7 9 3 10 4 11 32 12 5 13
REMARK SMILES IDX 6 14 2 15 1 16 13 17 14 18 15 21 16 22 17 23 21 24 18 25
REMARK SMILES IDX 20 26 19 27 22 28 24 29 23 30 25 31 26 32 29 33 27 34 28 35
REMARK H PARENT 11 6 14 19 14 20
ROOT
ATOM     1   N1  UNL     1      -3.256  -1.011   1.515  1.00  0.00    -0.212 N   
ATOM     2   C9  UNL     1      -2.010  -0.469   1.374  1.00  0.00     0.045 A   
ATOM     3   C10 UNL     1      -1.321  -1.415   0.649  1.00  0.00     0.127 A   
ATOM     4   N3  UNL     1      -2.125  -2.511   0.461  1.00  0.00    -0.132 NA  
ATOM     5   N4  UNL     1      -3.301  -2.257   1.009  1.00  0.00    -0.076 NA  
ATOM     6   H11 UNL     1      -1.769   0.529   1.715  1.00  0.00     0.083 HD  
ENDROOT
BRANCH   1   7
ATOM     7   C8  UNL     1      -4.451  -0.379   2.038  1.00  0.00     0.139 C   
BRANCH   7   8
ATOM     8   C7  UNL     1      -5.326   0.229   0.938  1.00  0.00     0.057 C   
BRANCH   8   9
ATOM     9   C6  UNL     1      -4.650   1.379   0.226  1.00  0.00    -0.044 A   
ATOM     10  C2  UNL     1      -3.251   2.196  -1.598  1.00  0.00     0.075 A   
ATOM     11  C3  UNL     1      -3.291   3.476  -1.049  1.00  0.00     0.033 A   
ATOM     12  C25 UNL     1      -3.934   1.156  -0.960  1.00  0.00     0.037 A   
ATOM     13  C4  UNL     1      -4.012   3.712   0.125  1.00  0.00     0.003 A   
ATOM     14  C5  UNL     1      -4.685   2.670   0.763  1.00  0.00     0.004 A   
BRANCH  10  15
ATOM     15  O1  UNL     1      -2.563   1.827  -2.722  1.00  0.00    -0.349 OA  
ATOM     16  C1  UNL     1      -2.114   2.886  -3.562  1.00  0.00     0.203 C   
ENDBRANCH  10  15
ENDBRANCH   8   9
ENDBRANCH   7   8
ENDBRANCH   1   7
BRANCH   3  17
ATOM     17  C11 UNL     1       0.057  -1.400   0.074  1.00  0.00     0.117 C   
BRANCH  17  18
ATOM     18  N2  UNL     1       0.552  -2.813  -0.119  1.00  0.00     0.249 N   
ATOM     19  H13 UNL     1      -0.246  -3.340  -0.503  1.00  0.00     0.199 HD  
ATOM     20  H14 UNL     1       1.299  -2.854  -0.815  1.00  0.00     0.199 HD  
BRANCH  18  21
ATOM     21  C12 UNL     1       0.988  -3.527   1.116  1.00  0.00     0.164 C   
BRANCH  21  22
ATOM     22  C13 UNL     1       2.269  -2.979   1.682  1.00  0.00    -0.002 A   
ATOM     23  C14 UNL     1       2.261  -2.267   2.906  1.00  0.00     0.012 A   
ATOM     24  C18 UNL     1       3.480  -3.147   0.989  1.00  0.00     0.045 A   
ATOM     25  C15 UNL     1       3.438  -1.722   3.429  1.00  0.00     0.037 A   
ATOM     26  C17 UNL     1       4.622  -2.595   1.532  1.00  0.00     0.109 A   
ATOM     27  C16 UNL     1       4.603  -1.902   2.716  1.00  0.00     0.108 A   
ATOM     28  O2  UNL     1       5.865  -2.658   0.987  1.00  0.00    -0.316 OA  
ATOM     29  O3  UNL     1       5.831  -1.444   3.069  1.00  0.00    -0.316 OA  
ATOM     30  C19 UNL     1       6.638  -1.951   1.984  1.00  0.00     0.337 C   
ENDBRANCH  21  22
ENDBRANCH  18  21
ENDBRANCH  17  18
BRANCH  17  31
ATOM     31  C20 UNL     1       0.100  -0.619  -1.256  1.00  0.00     0.043 C   
ATOM     32  C21 UNL     1       1.506  -0.348  -1.795  1.00  0.00     0.010 C   
ATOM     33  C24 UNL     1      -0.607  -1.265  -2.455  1.00  0.00     0.010 C   
ATOM     34  C22 UNL     1       1.229   0.176  -3.197  1.00  0.00     0.001 C   
ATOM     35  C23 UNL     1       0.039  -0.641  -3.694  1.00  0.00     0.001 C   
ENDBRANCH  17  31
ENDBRANCH   3  17
TORSDOF 9
