REMARK SMILES CCc1nc(C)c(Cn2cc([C@H](CC(C)C)[NH2+]Cc3ccc4c(c3)OCO4)nn2)o1
REMARK SMILES IDX 9 1 10 2 11 3 28 4 29 5 8 7 7 8 3 9 4 10 30 11 5 12 6 13
REMARK SMILES IDX 2 14 1 15 12 16 13 17 14 18 15 19 16 20 17 21 18 24 19 25
REMARK SMILES IDX 20 26 24 27 21 28 23 29 22 30 25 31 27 32 26 33
REMARK H PARENT 10 6 17 22 17 23
ROOT
ATOM     1   N2  UNL     1      -1.361  -1.669  -0.729  1.00  0.00    -0.206 N   
ATOM     2   C8  UNL     1      -1.498  -0.608   0.125  1.00  0.00     0.046 A   
ATOM     3   C9  UNL     1      -1.847   0.438  -0.700  1.00  0.00     0.127 A   
ATOM     4   N4  UNL     1      -1.931  -0.014  -1.992  1.00  0.00    -0.132 NA  
ATOM     5   N5  UNL     1      -1.627  -1.301  -1.998  1.00  0.00    -0.076 NA  
ATOM     6   H11 UNL     1      -1.300  -0.689   1.185  1.00  0.00     0.083 HD  
ENDROOT
BRANCH   1   7
ATOM     7   C7  UNL     1      -0.891  -3.010  -0.425  1.00  0.00     0.197 C   
BRANCH   7   8
ATOM     8   C6  UNL     1       0.582  -2.992  -0.324  1.00  0.00     0.102 A   
ATOM     9   C3  UNL     1       2.475  -2.902   0.708  1.00  0.00     0.147 A   
ATOM     10  N1  UNL     1       2.812  -2.892  -0.565  1.00  0.00    -0.231 NA  
ATOM     11  O3  UNL     1       1.125  -2.945   0.931  1.00  0.00    -0.296 OA  
ATOM     12  C4  UNL     1       1.617  -2.975  -1.236  1.00  0.00     0.068 A   
ATOM     13  C5  UNL     1       1.572  -3.002  -2.713  1.00  0.00     0.069 C   
BRANCH   9  14
ATOM     14  C2  UNL     1       3.351  -2.856   1.904  1.00  0.00     0.080 C   
ATOM     15  C1  UNL     1       3.450  -1.447   2.462  1.00  0.00     0.013 C   
ENDBRANCH   9  14
ENDBRANCH   7   8
ENDBRANCH   1   7
BRANCH   3  16
ATOM     16  C10 UNL     1      -2.035   1.889  -0.415  1.00  0.00     0.114 C   
BRANCH  16  17
ATOM     17  C11 UNL     1      -3.517   2.314  -0.452  1.00  0.00     0.064 C   
BRANCH  17  18
ATOM     18  C12 UNL     1      -4.414   1.651   0.615  1.00  0.00    -0.012 C   
ATOM     19  C13 UNL     1      -3.968   1.983   2.040  1.00  0.00     0.007 C   
ATOM     20  C14 UNL     1      -5.866   2.094   0.413  1.00  0.00     0.007 C   
ENDBRANCH  17  18
ENDBRANCH  16  17
BRANCH  16  21
ATOM     21  N3  UNL     1      -1.317   2.719  -1.464  1.00  0.00     0.249 N   
ATOM     22  H22 UNL     1      -1.678   2.406  -2.376  1.00  0.00     0.199 HD  
ATOM     23  H23 UNL     1      -1.567   3.706  -1.358  1.00  0.00     0.199 HD  
BRANCH  21  24
ATOM     24  C15 UNL     1       0.172   2.591  -1.510  1.00  0.00     0.164 C   
BRANCH  24  25
ATOM     25  C16 UNL     1       0.844   3.063  -0.252  1.00  0.00    -0.002 A   
ATOM     26  C17 UNL     1       0.903   4.444   0.056  1.00  0.00     0.012 A   
ATOM     27  C21 UNL     1       1.393   2.131   0.646  1.00  0.00     0.045 A   
ATOM     28  C18 UNL     1       1.493   4.892   1.242  1.00  0.00     0.037 A   
ATOM     29  C20 UNL     1       1.966   2.606   1.808  1.00  0.00     0.109 A   
ATOM     30  C19 UNL     1       2.014   3.946   2.098  1.00  0.00     0.108 A   
ATOM     31  O1  UNL     1       2.529   1.844   2.781  1.00  0.00    -0.316 OA  
ATOM     32  O2  UNL     1       2.619   4.198   3.287  1.00  0.00    -0.316 OA  
ATOM     33  C22 UNL     1       2.976   2.863   3.704  1.00  0.00     0.337 C   
ENDBRANCH  24  25
ENDBRANCH  21  24
ENDBRANCH  16  21
ENDBRANCH   3  16
TORSDOF 9
