REMARK SMILES CN(C)c1ncccc1Cn1cc([C@@H]([NH2+]Cc2ccc3c(c2)OCO3)C2CCCC2)nn1
REMARK SMILES IDX 11 1 12 2 13 3 31 4 32 5 10 7 9 8 4 9 5 10 6 11 8 12 7 13
REMARK SMILES IDX 2 14 1 15 3 16 14 17 15 18 16 21 17 22 18 23 22 24 19 25
REMARK SMILES IDX 21 26 20 27 23 28 25 29 24 30 26 31 27 32 30 33 28 34 29 35
REMARK H PARENT 12 6 15 19 15 20
ROOT
ATOM     1   N3  UNL     1       0.483   1.207   1.597  1.00  0.00    -0.208 N   
ATOM     2   C9  UNL     1       0.275   1.379   0.257  1.00  0.00     0.046 A   
ATOM     3   C10 UNL     1      -1.063   1.106   0.088  1.00  0.00     0.127 A   
ATOM     4   N5  UNL     1      -1.626   0.842   1.310  1.00  0.00    -0.132 NA  
ATOM     5   N6  UNL     1      -0.670   0.900   2.224  1.00  0.00    -0.076 NA  
ATOM     6   H12 UNL     1       1.081   1.606  -0.427  1.00  0.00     0.083 HD  
ENDROOT
BRANCH   1   7
ATOM     7   C8  UNL     1       1.745   1.218   2.317  1.00  0.00     0.173 C   
BRANCH   7   8
ATOM     8   C7  UNL     1       2.466  -0.088   2.111  1.00  0.00     0.012 A   
ATOM     9   C3  UNL     1       3.342  -0.290   1.032  1.00  0.00     0.124 A   
ATOM     10  N2  UNL     1       3.878  -1.502   0.775  1.00  0.00    -0.241 NA  
ATOM     11  C4  UNL     1       3.601  -2.523   1.616  1.00  0.00     0.113 A   
ATOM     12  C6  UNL     1       2.185  -1.175   2.955  1.00  0.00     0.010 A   
ATOM     13  C5  UNL     1       2.770  -2.409   2.712  1.00  0.00     0.021 A   
BRANCH   9  14
ATOM     14  N1  UNL     1       3.682   0.806   0.196  1.00  0.00    -0.322 N   
ATOM     15  C1  UNL     1       4.867   1.468   0.773  1.00  0.00     0.131 C   
ATOM     16  C2  UNL     1       3.934   0.362  -1.183  1.00  0.00     0.131 C   
ENDBRANCH   9  14
ENDBRANCH   7   8
ENDBRANCH   1   7
BRANCH   3  17
ATOM     17  C11 UNL     1      -1.866   0.956  -1.159  1.00  0.00     0.117 C   
BRANCH  17  18
ATOM     18  N4  UNL     1      -2.848  -0.194  -1.034  1.00  0.00     0.249 N   
ATOM     19  H14 UNL     1      -3.463   0.028  -0.241  1.00  0.00     0.199 HD  
ATOM     20  H15 UNL     1      -3.430  -0.243  -1.875  1.00  0.00     0.199 HD  
BRANCH  18  21
ATOM     21  C12 UNL     1      -2.271  -1.547  -0.756  1.00  0.00     0.164 C   
BRANCH  21  22
ATOM     22  C13 UNL     1      -1.237  -1.992  -1.751  1.00  0.00    -0.002 A   
ATOM     23  C14 UNL     1       0.121  -2.102  -1.363  1.00  0.00     0.012 A   
ATOM     24  C18 UNL     1      -1.601  -2.284  -3.076  1.00  0.00     0.045 A   
ATOM     25  C15 UNL     1       1.104  -2.492  -2.276  1.00  0.00     0.037 A   
ATOM     26  C17 UNL     1      -0.606  -2.663  -3.953  1.00  0.00     0.109 A   
ATOM     27  C16 UNL     1       0.708  -2.764  -3.567  1.00  0.00     0.108 A   
ATOM     28  O1  UNL     1      -0.786  -2.971  -5.265  1.00  0.00    -0.316 OA  
ATOM     29  O2  UNL     1       1.519  -3.148  -4.585  1.00  0.00    -0.316 OA  
ATOM     30  C19 UNL     1       0.563  -3.313  -5.654  1.00  0.00     0.337 C   
ENDBRANCH  21  22
ENDBRANCH  18  21
ENDBRANCH  17  18
BRANCH  17  31
ATOM     31  C20 UNL     1      -2.661   2.209  -1.574  1.00  0.00     0.043 C   
ATOM     32  C21 UNL     1      -1.808   3.451  -1.844  1.00  0.00     0.010 C   
ATOM     33  C24 UNL     1      -3.686   2.740  -0.570  1.00  0.00     0.010 C   
ATOM     34  C22 UNL     1      -2.827   4.583  -1.928  1.00  0.00     0.001 C   
ATOM     35  C23 UNL     1      -4.021   4.139  -1.083  1.00  0.00     0.001 C   
ENDBRANCH  17  31
ENDBRANCH   3  17
TORSDOF 8
