REMARK SMILES c1cc2c(s1)[C@@H](Cn1cc([C@@H]([NH2+]Cc3ccc4c(c3)OCO4)C3CCCCC3)nn1)NCC2
REMARK SMILES IDX 8 1 9 2 10 3 29 4 30 5 7 7 6 8 1 9 2 10 5 11 3 12 4 13 33 14
REMARK SMILES IDX 32 15 31 16 11 18 12 19 13 22 14 23 15 24 19 25 16 26 18 27
REMARK SMILES IDX 17 28 20 29 22 30 21 31 23 32 24 33 28 34 25 35 27 36 26 37
REMARK H PARENT 9 6 31 17 12 20 12 21
ROOT
ATOM     1   N1  UNL     1       0.124   0.903   1.788  1.00  0.00    -0.210 N   
ATOM     2   C7  UNL     1       0.186   0.427   0.507  1.00  0.00     0.045 A   
ATOM     3   C8  UNL     1       1.398  -0.227   0.454  1.00  0.00     0.127 A   
ATOM     4   N3  UNL     1       2.042  -0.078   1.654  1.00  0.00    -0.132 NA  
ATOM     5   N4  UNL     1       1.267   0.639   2.449  1.00  0.00    -0.076 NA  
ATOM     6   H6  UNL     1      -0.611   0.576  -0.209  1.00  0.00     0.083 HD  
ENDROOT
BRANCH   1   7
ATOM     7   C6  UNL     1      -0.911   1.717   2.393  1.00  0.00     0.158 C   
BRANCH   7   8
ATOM     8   C5  UNL     1      -1.538   1.110   3.665  1.00  0.00     0.111 C   
ATOM     9   C1  UNL     1      -3.961  -1.868   2.671  1.00  0.00     0.046 A   
ATOM     10  C2  UNL     1      -4.582  -1.155   3.671  1.00  0.00     0.012 A   
ATOM     11  S1  UNL     1      -2.433  -1.218   2.274  1.00  0.00    -0.101 S   
ATOM     12  C3  UNL     1      -3.790  -0.053   4.107  1.00  0.00    -0.035 A   
ATOM     13  C4  UNL     1      -2.602   0.053   3.398  1.00  0.00     0.011 A   
ATOM     14  C25 UNL     1      -4.135   0.919   5.195  1.00  0.00     0.051 C   
ATOM     15  C24 UNL     1      -2.889   1.722   5.618  1.00  0.00     0.086 C   
ATOM     16  N5  UNL     1      -2.141   2.232   4.450  1.00  0.00    -0.308 NA  
ATOM     17  H28 UNL     1      -2.801   2.733   3.854  1.00  0.00     0.123 HD  
ENDBRANCH   7   8
ENDBRANCH   1   7
BRANCH   3  18
ATOM     18  C9  UNL     1       2.083  -0.944  -0.666  1.00  0.00     0.117 C   
BRANCH  18  19
ATOM     19  N2  UNL     1       3.535  -0.502  -0.717  1.00  0.00     0.249 N   
ATOM     20  H8  UNL     1       3.928  -0.695   0.215  1.00  0.00     0.199 HD  
ATOM     21  H9  UNL     1       4.060  -1.058  -1.394  1.00  0.00     0.199 HD  
BRANCH  19  22
ATOM     22  C10 UNL     1       3.785   0.941  -1.016  1.00  0.00     0.164 C   
BRANCH  22  23
ATOM     23  C11 UNL     1       3.264   1.361  -2.362  1.00  0.00    -0.002 A   
ATOM     24  C12 UNL     1       3.884   0.903  -3.549  1.00  0.00     0.012 A   
ATOM     25  C16 UNL     1       2.124   2.179  -2.449  1.00  0.00     0.045 A   
ATOM     26  C13 UNL     1       3.370   1.245  -4.805  1.00  0.00     0.037 A   
ATOM     27  C15 UNL     1       1.645   2.497  -3.702  1.00  0.00     0.109 A   
ATOM     28  C14 UNL     1       2.247   2.040  -4.847  1.00  0.00     0.108 A   
ATOM     29  O1  UNL     1       0.552   3.263  -3.959  1.00  0.00    -0.316 OA  
ATOM     30  O2  UNL     1       1.611   2.460  -5.971  1.00  0.00    -0.316 OA  
ATOM     31  C17 UNL     1       0.559   3.271  -5.405  1.00  0.00     0.337 C   
ENDBRANCH  22  23
ENDBRANCH  19  22
ENDBRANCH  18  19
BRANCH  18  32
ATOM     32  C18 UNL     1       2.032  -2.495  -0.494  1.00  0.00     0.043 C   
ATOM     33  C19 UNL     1       2.750  -3.280  -1.615  1.00  0.00     0.010 C   
ATOM     34  C23 UNL     1       0.585  -3.033  -0.405  1.00  0.00     0.010 C   
ATOM     35  C20 UNL     1       2.036  -3.170  -2.961  1.00  0.00     0.001 C   
ATOM     36  C22 UNL     1      -0.167  -2.923  -1.730  1.00  0.00     0.001 C   
ATOM     37  C21 UNL     1       0.582  -3.621  -2.862  1.00  0.00     0.000 C   
ENDBRANCH  18  32
ENDBRANCH   3  18
TORSDOF 7
