REMARK SMILES CC(C)[C@H]([NH2+]Cc1ccc2c(c1)OCO2)c1cn(Cc2nc[nH]n2)nn1
REMARK SMILES IDX 16 1 17 2 18 3 25 4 26 5 4 7 2 8 1 9 3 10 5 11 6 14 7 15
REMARK SMILES IDX 8 16 12 17 9 18 11 19 10 20 13 21 15 22 14 23 19 24 20 25
REMARK SMILES IDX 21 26 24 27 22 28 23 29
REMARK H PARENT 17 6 5 12 5 13 23 30
ROOT
ATOM     1   C13 UNL     1      -1.244   0.735  -0.907  1.00  0.00     0.127 A   
ATOM     2   C14 UNL     1      -1.593   1.438  -2.037  1.00  0.00     0.046 A   
ATOM     3   N2  UNL     1      -1.395   2.750  -1.690  1.00  0.00    -0.204 N   
ATOM     4   N6  UNL     1      -0.982   2.844  -0.409  1.00  0.00    -0.076 NA  
ATOM     5   N7  UNL     1      -0.882   1.618   0.078  1.00  0.00    -0.132 NA  
ATOM     6   H18 UNL     1      -1.926   1.151  -3.026  1.00  0.00     0.083 HD  
ENDROOT
BRANCH   1   7
ATOM     7   C4  UNL     1      -1.176  -0.735  -0.641  1.00  0.00     0.117 C   
BRANCH   7   8
ATOM     8   C2  UNL     1      -2.566  -1.333  -0.300  1.00  0.00     0.037 C   
ATOM     9   C1  UNL     1      -3.133  -0.865   1.045  1.00  0.00     0.014 C   
ATOM     10  C3  UNL     1      -2.549  -2.866  -0.348  1.00  0.00     0.014 C   
ENDBRANCH   7   8
BRANCH   7  11
ATOM     11  N1  UNL     1      -0.198  -1.020   0.467  1.00  0.00     0.249 N   
ATOM     12  H9  UNL     1      -0.354  -1.935   0.898  1.00  0.00     0.199 HD  
ATOM     13  H10 UNL     1      -0.375  -0.318   1.202  1.00  0.00     0.199 HD  
BRANCH  11  14
ATOM     14  C5  UNL     1       1.238  -0.899   0.091  1.00  0.00     0.164 C   
BRANCH  14  15
ATOM     15  C6  UNL     1       2.115  -1.140   1.288  1.00  0.00    -0.002 A   
ATOM     16  C7  UNL     1       2.636  -2.429   1.549  1.00  0.00     0.012 A   
ATOM     17  C11 UNL     1       2.376  -0.090   2.187  1.00  0.00     0.045 A   
ATOM     18  C8  UNL     1       3.417  -2.670   2.684  1.00  0.00     0.037 A   
ATOM     19  C10 UNL     1       3.148  -0.363   3.296  1.00  0.00     0.109 A   
ATOM     20  C9  UNL     1       3.655  -1.616   3.538  1.00  0.00     0.108 A   
ATOM     21  O1  UNL     1       3.492   0.531   4.260  1.00  0.00    -0.316 OA  
ATOM     22  O2  UNL     1       4.383  -1.669   4.683  1.00  0.00    -0.316 OA  
ATOM     23  C12 UNL     1       4.298  -0.297   5.128  1.00  0.00     0.337 C   
ENDBRANCH  14  15
ENDBRANCH  11  14
ENDBRANCH   7  11
ENDBRANCH   1   7
BRANCH   3  24
ATOM     24  C15 UNL     1      -1.648   3.939  -2.483  1.00  0.00     0.213 C   
BRANCH  24  25
ATOM     25  C16 UNL     1      -0.625   4.081  -3.550  1.00  0.00     0.167 A   
ATOM     26  N3  UNL     1      -0.469   3.155  -4.557  1.00  0.00    -0.221 NA  
ATOM     27  N5  UNL     1       0.186   5.144  -3.648  1.00  0.00    -0.166 NA  
ATOM     28  C17 UNL     1       0.474   3.682  -5.304  1.00  0.00     0.205 A   
ATOM     29  N4  UNL     1       0.870   4.868  -4.771  1.00  0.00    -0.226 N   
ATOM     30  H22 UNL     1       1.569   5.524  -5.106  1.00  0.00     0.177 HD  
ENDBRANCH  24  25
ENDBRANCH   3  24
TORSDOF 7
