REMARK SMILES CC(=O)Nc1ccc(S(=O)(=O)n2cc([C@@H]([NH2+]Cc3ccc4c(c3)OCO4)C3CCCC3)nn2)cc1
REMARK SMILES IDX 12 1 13 2 14 3 32 4 33 5 9 6 10 7 11 8 8 9 5 10 6 11 35 12
REMARK SMILES IDX 7 13 34 14 4 15 2 16 1 17 3 18 15 20 16 21 17 24 18 25 19 26
REMARK SMILES IDX 23 27 20 28 22 29 21 30 24 31 26 32 25 33 27 34 28 35 31 36
REMARK SMILES IDX 29 37 30 38
REMARK H PARENT 4 19 16 22 16 23
ROOT
ATOM     1   N2  UNL     1      -1.659   1.622  -1.840  1.00  0.00     0.097 N   
ATOM     2   C7  UNL     1      -1.341   2.624  -0.948  1.00  0.00     0.250 A   
ATOM     3   C8  UNL     1      -0.679   1.972   0.069  1.00  0.00     0.138 A   
ATOM     4   N4  UNL     1      -0.653   0.626  -0.202  1.00  0.00    -0.123 NA  
ATOM     5   N5  UNL     1      -1.290   0.417  -1.345  1.00  0.00     0.020 NA  
ENDROOT
BRANCH   1   6
ATOM     6   S1  UNL     1      -2.599   1.890  -3.243  1.00  0.00    -0.080 S   
ATOM     7   O2  UNL     1      -2.156   3.177  -3.745  1.00  0.00    -0.476 OA  
ATOM     8   O3  UNL     1      -3.961   1.653  -2.805  1.00  0.00    -0.476 OA  
BRANCH   6   9
ATOM     9   C6  UNL     1      -2.086   0.629  -4.365  1.00  0.00     0.341 A   
ATOM     10  C3  UNL     1      -1.239  -1.390  -6.113  1.00  0.00     0.033 A   
ATOM     11  C4  UNL     1      -0.355  -0.384  -5.710  1.00  0.00     0.036 A   
ATOM     12  C24 UNL     1      -2.562  -1.358  -5.646  1.00  0.00     0.036 A   
ATOM     13  C5  UNL     1      -0.774   0.630  -4.844  1.00  0.00     0.140 A   
ATOM     14  C23 UNL     1      -2.989  -0.353  -4.773  1.00  0.00     0.140 A   
BRANCH  10  15
ATOM     15  N1  UNL     1      -0.885  -2.446  -6.978  1.00  0.00    -0.286 N   
ATOM     16  C2  UNL     1       0.369  -2.723  -7.493  1.00  0.00     0.213 C   
ATOM     17  C1  UNL     1       0.361  -3.918  -8.415  1.00  0.00     0.111 C   
ATOM     18  O1  UNL     1       1.404  -2.100  -7.277  1.00  0.00    -0.278 OA  
ATOM     19  H4  UNL     1      -1.629  -3.083  -7.235  1.00  0.00     0.156 HD  
ENDBRANCH  10  15
ENDBRANCH   6   9
ENDBRANCH   1   6
BRANCH   3  20
ATOM     20  C9  UNL     1      -0.064   2.482   1.339  1.00  0.00     0.118 C   
BRANCH  20  21
ATOM     21  N3  UNL     1       0.034   1.373   2.351  1.00  0.00     0.249 N   
ATOM     22  H9  UNL     1       0.321   0.520   1.846  1.00  0.00     0.199 HD  
ATOM     23  H10 UNL     1       0.766   1.542   3.047  1.00  0.00     0.199 HD  
BRANCH  21  24
ATOM     24  C10 UNL     1      -1.234   1.048   3.063  1.00  0.00     0.164 C   
BRANCH  24  25
ATOM     25  C11 UNL     1      -1.045  -0.161   3.935  1.00  0.00    -0.002 A   
ATOM     26  C12 UNL     1      -1.371  -1.448   3.445  1.00  0.00     0.012 A   
ATOM     27  C16 UNL     1      -0.487  -0.028   5.218  1.00  0.00     0.045 A   
ATOM     28  C13 UNL     1      -1.158  -2.589   4.227  1.00  0.00     0.037 A   
ATOM     29  C15 UNL     1      -0.284  -1.173   5.959  1.00  0.00     0.109 A   
ATOM     30  C14 UNL     1      -0.611  -2.417   5.479  1.00  0.00     0.108 A   
ATOM     31  O4  UNL     1       0.249  -1.220   7.208  1.00  0.00    -0.316 OA  
ATOM     32  O5  UNL     1      -0.331  -3.405   6.369  1.00  0.00    -0.316 OA  
ATOM     33  C17 UNL     1       0.199  -2.641   7.474  1.00  0.00     0.337 C   
ENDBRANCH  24  25
ENDBRANCH  21  24
ENDBRANCH  20  21
BRANCH  20  34
ATOM     34  C18 UNL     1       1.320   3.112   1.083  1.00  0.00     0.043 C   
ATOM     35  C19 UNL     1       2.434   2.151   0.636  1.00  0.00     0.010 C   
ATOM     36  C22 UNL     1       1.924   3.848   2.283  1.00  0.00     0.010 C   
ATOM     37  C20 UNL     1       3.739   2.728   1.190  1.00  0.00     0.001 C   
ATOM     38  C21 UNL     1       3.370   4.046   1.856  1.00  0.00     0.001 C   
ENDBRANCH  20  34
ENDBRANCH   3  20
TORSDOF 8
