REMARK SMILES Cc1cncc([C@@H](CO)n2cc([C@H](CC(C)C)[NH2+]Cc3ccc4c(c3)OCO4)nn2)c1
REMARK SMILES IDX 10 1 11 2 12 3 29 4 30 5 7 7 6 8 2 9 3 10 31 11 4 12 5 13
REMARK SMILES IDX 1 14 8 15 9 16 13 18 14 19 15 20 16 21 17 22 18 23 19 26
REMARK SMILES IDX 20 27 21 28 25 29 22 30 24 31 23 32 26 33 28 34 27 35
REMARK H PARENT 11 6 9 17 18 24 18 25
ROOT
ATOM     1   N2  UNL     1       0.659   0.895   2.903  1.00  0.00    -0.202 N   
ATOM     2   C8  UNL     1       0.688   1.239   1.579  1.00  0.00     0.046 A   
ATOM     3   C9  UNL     1      -0.627   1.483   1.262  1.00  0.00     0.127 A   
ATOM     4   N4  UNL     1      -1.401   1.277   2.373  1.00  0.00    -0.132 NA  
ATOM     5   N5  UNL     1      -0.609   0.907   3.366  1.00  0.00    -0.075 NA  
ATOM     6   H10 UNL     1       1.607   1.274   1.010  1.00  0.00     0.083 HD  
ENDROOT
BRANCH   1   7
ATOM     7   C6  UNL     1       1.761   0.488   3.776  1.00  0.00     0.157 C   
BRANCH   7   8
ATOM     8   C5  UNL     1       2.483  -0.709   3.187  1.00  0.00    -0.005 A   
ATOM     9   C2  UNL     1       2.628  -3.113   2.844  1.00  0.00    -0.032 A   
ATOM     10  C3  UNL     1       3.739  -2.874   2.047  1.00  0.00     0.114 A   
ATOM     11  C23 UNL     1       1.987  -2.006   3.403  1.00  0.00     0.012 A   
ATOM     12  N1  UNL     1       4.237  -1.644   1.804  1.00  0.00    -0.264 NA  
ATOM     13  C4  UNL     1       3.611  -0.597   2.381  1.00  0.00     0.116 A   
ATOM     14  C1  UNL     1       2.110  -4.502   3.042  1.00  0.00     0.046 C   
ENDBRANCH   7   8
BRANCH   7  15
ATOM     15  C7  UNL     1       2.628   1.691   4.197  1.00  0.00     0.186 C   
BRANCH  15  16
ATOM     16  O1  UNL     1       3.190   2.390   3.087  1.00  0.00    -0.394 OA  
ATOM     17  H9  UNL     1       3.748   3.104   3.454  1.00  0.00     0.210 HD  
ENDBRANCH  15  16
ENDBRANCH   7  15
ENDBRANCH   1   7
BRANCH   3  18
ATOM     18  C10 UNL     1      -1.267   1.837  -0.037  1.00  0.00     0.114 C   
BRANCH  18  19
ATOM     19  C11 UNL     1      -1.604   3.337  -0.143  1.00  0.00     0.064 C   
BRANCH  19  20
ATOM     20  C12 UNL     1      -0.387   4.286  -0.117  1.00  0.00    -0.012 C   
ATOM     21  C13 UNL     1      -0.864   5.738  -0.178  1.00  0.00     0.007 C   
ATOM     22  C14 UNL     1       0.588   4.018  -1.265  1.00  0.00     0.007 C   
ENDBRANCH  19  20
ENDBRANCH  18  19
BRANCH  18  23
ATOM     23  N3  UNL     1      -2.573   1.081  -0.196  1.00  0.00     0.249 N   
ATOM     24  H21 UNL     1      -3.087   1.440  -1.006  1.00  0.00     0.199 HD  
ATOM     25  H22 UNL     1      -3.131   1.290   0.644  1.00  0.00     0.199 HD  
BRANCH  23  26
ATOM     26  C15 UNL     1      -2.469  -0.406  -0.299  1.00  0.00     0.164 C   
BRANCH  26  27
ATOM     27  C16 UNL     1      -1.748  -0.863  -1.536  1.00  0.00    -0.002 A   
ATOM     28  C17 UNL     1      -2.381  -0.800  -2.801  1.00  0.00     0.012 A   
ATOM     29  C21 UNL     1      -0.424  -1.328  -1.447  1.00  0.00     0.045 A   
ATOM     30  C18 UNL     1      -1.703  -1.186  -3.963  1.00  0.00     0.037 A   
ATOM     31  C20 UNL     1       0.214  -1.700  -2.612  1.00  0.00     0.109 A   
ATOM     32  C19 UNL     1      -0.405  -1.630  -3.834  1.00  0.00     0.108 A   
ATOM     33  O2  UNL     1       1.487  -2.162  -2.701  1.00  0.00    -0.316 OA  
ATOM     34  O3  UNL     1       0.402  -2.040  -4.848  1.00  0.00    -0.316 OA  
ATOM     35  C22 UNL     1       1.599  -2.393  -4.124  1.00  0.00     0.337 C   
ENDBRANCH  26  27
ENDBRANCH  23  26
ENDBRANCH  18  23
ENDBRANCH   3  18
TORSDOF 10
