REMARK SMILES Cc1cncc([C@H](CO)n2cc([C@H](CC(C)C)[NH2+]Cc3ccc4c(c3)OCO4)nn2)c1
REMARK SMILES IDX 10 1 11 2 12 3 29 4 30 5 7 7 6 8 2 9 3 10 31 11 4 12 5 13
REMARK SMILES IDX 1 14 8 15 9 16 13 18 14 19 15 20 16 21 17 22 18 23 19 26
REMARK SMILES IDX 20 27 21 28 25 29 22 30 24 31 23 32 26 33 28 34 27 35
REMARK H PARENT 11 6 9 17 18 24 18 25
ROOT
ATOM     1   N2  UNL     1       1.755  -1.504  -0.721  1.00  0.00    -0.202 N   
ATOM     2   C8  UNL     1       0.711  -0.942  -1.409  1.00  0.00     0.046 A   
ATOM     3   C9  UNL     1       0.313   0.112  -0.619  1.00  0.00     0.127 A   
ATOM     4   N4  UNL     1       1.095   0.149   0.507  1.00  0.00    -0.132 NA  
ATOM     5   N5  UNL     1       1.958  -0.849   0.444  1.00  0.00    -0.075 NA  
ATOM     6   H10 UNL     1       0.376  -1.326  -2.363  1.00  0.00     0.083 HD  
ENDROOT
BRANCH   1   7
ATOM     7   C6  UNL     1       2.557  -2.670  -1.102  1.00  0.00     0.157 C   
BRANCH   7   8
ATOM     8   C5  UNL     1       2.009  -3.923  -0.452  1.00  0.00    -0.005 A   
ATOM     9   C2  UNL     1       1.048  -6.149  -0.617  1.00  0.00    -0.032 A   
ATOM     10  C3  UNL     1       1.071  -6.197   0.768  1.00  0.00     0.114 A   
ATOM     11  C23 UNL     1       1.531  -4.988  -1.229  1.00  0.00     0.012 A   
ATOM     12  N1  UNL     1       1.512  -5.187   1.550  1.00  0.00    -0.264 NA  
ATOM     13  C4  UNL     1       1.977  -4.084   0.929  1.00  0.00     0.116 A   
ATOM     14  C1  UNL     1       0.559  -7.307  -1.431  1.00  0.00     0.046 C   
ENDBRANCH   7   8
BRANCH   7  15
ATOM     15  C7  UNL     1       4.059  -2.472  -0.835  1.00  0.00     0.186 C   
BRANCH  15  16
ATOM     16  O1  UNL     1       4.603  -1.551  -1.786  1.00  0.00    -0.394 OA  
ATOM     17  H9  UNL     1       5.517  -1.361  -1.512  1.00  0.00     0.210 HD  
ENDBRANCH  15  16
ENDBRANCH   7  15
ENDBRANCH   1   7
BRANCH   3  18
ATOM     18  C10 UNL     1      -0.759   1.139  -0.806  1.00  0.00     0.114 C   
BRANCH  18  19
ATOM     19  C11 UNL     1      -0.297   2.230  -1.796  1.00  0.00     0.064 C   
BRANCH  19  20
ATOM     20  C12 UNL     1      -1.313   3.345  -2.123  1.00  0.00    -0.012 C   
ATOM     21  C13 UNL     1      -2.650   2.802  -2.631  1.00  0.00     0.007 C   
ATOM     22  C14 UNL     1      -0.710   4.294  -3.164  1.00  0.00     0.007 C   
ENDBRANCH  19  20
ENDBRANCH  18  19
BRANCH  18  23
ATOM     23  N3  UNL     1      -1.103   1.781   0.511  1.00  0.00     0.249 N   
ATOM     24  H21 UNL     1      -0.210   1.958   0.996  1.00  0.00     0.199 HD  
ATOM     25  H22 UNL     1      -1.549   2.696   0.395  1.00  0.00     0.199 HD  
BRANCH  23  26
ATOM     26  C15 UNL     1      -1.946   0.959   1.423  1.00  0.00     0.164 C   
BRANCH  26  27
ATOM     27  C16 UNL     1      -2.194   1.705   2.704  1.00  0.00    -0.002 A   
ATOM     28  C17 UNL     1      -3.308   2.570   2.828  1.00  0.00     0.012 A   
ATOM     29  C21 UNL     1      -1.278   1.599   3.766  1.00  0.00     0.045 A   
ATOM     30  C18 UNL     1      -3.513   3.315   3.995  1.00  0.00     0.037 A   
ATOM     31  C20 UNL     1      -1.511   2.347   4.902  1.00  0.00     0.109 A   
ATOM     32  C19 UNL     1      -2.595   3.182   5.013  1.00  0.00     0.108 A   
ATOM     33  O2  UNL     1      -0.735   2.356   6.016  1.00  0.00    -0.316 OA  
ATOM     34  O3  UNL     1      -2.636   3.825   6.208  1.00  0.00    -0.316 OA  
ATOM     35  C22 UNL     1      -1.456   3.292   6.848  1.00  0.00     0.337 C   
ENDBRANCH  26  27
ENDBRANCH  23  26
ENDBRANCH  18  23
ENDBRANCH   3  18
TORSDOF 10
