REMARK SMILES Cc1ccncc1-n1cc([C@H](CC(C)C)[NH2+]Cc2ccc3c(c2)OCO3)nn1
REMARK SMILES IDX 11 1 10 2 8 3 9 4 28 5 27 6 7 7 2 8 3 9 4 10 6 11 5 12 1 13
REMARK SMILES IDX 12 14 13 15 14 16 15 17 16 18 17 21 18 22 19 23 23 24 20 25
REMARK SMILES IDX 22 26 21 27 24 28 26 29 25 30
REMARK H PARENT 16 19 16 20
ROOT
ATOM     1   C9  UNL     1      -0.434   1.173   1.123  1.00  0.00     0.114 C   
ENDROOT
BRANCH   1   2
ATOM     2   C8  UNL     1      -1.288   0.824  -0.051  1.00  0.00     0.127 A   
ATOM     3   N2  UNL     1      -2.277  -0.025  -1.824  1.00  0.00    -0.179 N   
ATOM     4   C7  UNL     1      -1.248  -0.245  -0.919  1.00  0.00     0.135 A   
ATOM     5   N5  UNL     1      -2.861   1.159  -1.509  1.00  0.00    -0.071 NA  
ATOM     6   N4  UNL     1      -2.283   1.670  -0.436  1.00  0.00    -0.131 NA  
BRANCH   3   7
ATOM     7   C6  UNL     1      -2.690  -0.832  -2.918  1.00  0.00     0.079 A   
ATOM     8   C2  UNL     1      -3.759  -0.502  -3.779  1.00  0.00    -0.024 A   
ATOM     9   C3  UNL     1      -4.060  -1.389  -4.828  1.00  0.00     0.025 A   
ATOM     10  C4  UNL     1      -3.313  -2.544  -4.986  1.00  0.00     0.111 A   
ATOM     11  C5  UNL     1      -2.007  -2.024  -3.169  1.00  0.00     0.137 A   
ATOM     12  N1  UNL     1      -2.292  -2.879  -4.177  1.00  0.00    -0.263 NA  
ATOM     13  C1  UNL     1      -4.613   0.732  -3.662  1.00  0.00     0.046 C   
ENDBRANCH   3   7
ENDBRANCH   1   2
BRANCH   1  14
ATOM     14  C10 UNL     1      -1.088   0.784   2.464  1.00  0.00     0.064 C   
BRANCH  14  15
ATOM     15  C11 UNL     1      -1.312  -0.729   2.674  1.00  0.00    -0.012 C   
ATOM     16  C12 UNL     1      -0.005  -1.523   2.644  1.00  0.00     0.007 C   
ATOM     17  C13 UNL     1      -2.026  -0.964   4.008  1.00  0.00     0.007 C   
ENDBRANCH  14  15
ENDBRANCH   1  14
BRANCH   1  18
ATOM     18  N3  UNL     1      -0.198   2.671   1.175  1.00  0.00     0.249 N   
ATOM     19  H18 UNL     1       0.229   2.925   2.071  1.00  0.00     0.199 HD  
ATOM     20  H19 UNL     1      -1.126   3.115   1.143  1.00  0.00     0.199 HD  
BRANCH  18  21
ATOM     21  C14 UNL     1       0.615   3.260   0.068  1.00  0.00     0.164 C   
BRANCH  21  22
ATOM     22  C15 UNL     1       2.031   2.756   0.048  1.00  0.00    -0.002 A   
ATOM     23  C16 UNL     1       2.962   3.189   1.022  1.00  0.00     0.012 A   
ATOM     24  C20 UNL     1       2.429   1.818  -0.921  1.00  0.00     0.045 A   
ATOM     25  C17 UNL     1       4.270   2.691   1.036  1.00  0.00     0.037 A   
ATOM     26  C19 UNL     1       3.724   1.346  -0.876  1.00  0.00     0.109 A   
ATOM     27  C18 UNL     1       4.619   1.769   0.075  1.00  0.00     0.108 A   
ATOM     28  O1  UNL     1       4.262   0.433  -1.726  1.00  0.00    -0.316 OA  
ATOM     29  O2  UNL     1       5.835   1.179  -0.059  1.00  0.00    -0.316 OA  
ATOM     30  C21 UNL     1       5.617   0.358  -1.226  1.00  0.00     0.337 C   
ENDBRANCH  21  22
ENDBRANCH  18  21
ENDBRANCH   1  18
TORSDOF 7
