REMARK SMILES Cc1ccc([C@H](CO)n2cc([C@@H]([NH2+]Cc3ccc4c(c3)OCO4)C3CCCC3)nn2)s1
REMARK SMILES IDX 9 1 10 2 11 3 29 4 30 5 6 7 5 8 2 9 3 10 31 11 4 12 1 13
REMARK SMILES IDX 7 14 8 15 12 17 13 18 14 21 15 22 16 23 20 24 17 25 19 26
REMARK SMILES IDX 18 27 21 28 23 29 22 30 24 31 25 32 28 33 26 34 27 35
REMARK H PARENT 10 6 8 16 13 19 13 20
ROOT
ATOM     1   N1  UNL     1      -0.218   2.271   1.282  1.00  0.00    -0.202 N   
ATOM     2   C8  UNL     1       0.308   1.032   1.024  1.00  0.00     0.046 A   
ATOM     3   C9  UNL     1       0.625   1.071  -0.315  1.00  0.00     0.127 A   
ATOM     4   N3  UNL     1       0.271   2.294  -0.825  1.00  0.00    -0.132 NA  
ATOM     5   N4  UNL     1      -0.253   3.013   0.153  1.00  0.00    -0.075 NA  
ATOM     6   H10 UNL     1       0.395   0.272   1.788  1.00  0.00     0.083 HD  
ENDROOT
BRANCH   1   7
ATOM     7   C6  UNL     1      -0.765   2.760   2.547  1.00  0.00     0.162 C   
BRANCH   7   8
ATOM     8   C5  UNL     1      -2.276   2.738   2.479  1.00  0.00     0.014 A   
ATOM     9   C2  UNL     1      -4.653   2.119   2.784  1.00  0.00    -0.014 A   
ATOM     10  C3  UNL     1      -4.503   3.234   1.988  1.00  0.00     0.011 A   
ATOM     11  S1  UNL     1      -3.144   1.507   3.303  1.00  0.00    -0.097 S   
ATOM     12  C4  UNL     1      -3.135   3.591   1.810  1.00  0.00     0.014 A   
ATOM     13  C1  UNL     1      -5.915   1.445   3.206  1.00  0.00     0.052 C   
ENDBRANCH   7   8
BRANCH   7  14
ATOM     14  C7  UNL     1      -0.207   4.139   2.930  1.00  0.00     0.186 C   
BRANCH  14  15
ATOM     15  O1  UNL     1       1.172   4.030   3.294  1.00  0.00    -0.394 OA  
ATOM     16  H9  UNL     1       1.471   4.922   3.552  1.00  0.00     0.210 HD  
ENDBRANCH  14  15
ENDBRANCH   7  14
ENDBRANCH   1   7
BRANCH   3  17
ATOM     17  C10 UNL     1       1.171   0.020  -1.223  1.00  0.00     0.117 C   
BRANCH  17  18
ATOM     18  N2  UNL     1       0.573   0.156  -2.609  1.00  0.00     0.249 N   
ATOM     19  H12 UNL     1       1.076  -0.443  -3.269  1.00  0.00     0.199 HD  
ATOM     20  H13 UNL     1       0.729   1.132  -2.895  1.00  0.00     0.199 HD  
BRANCH  18  21
ATOM     21  C11 UNL     1      -0.894  -0.104  -2.728  1.00  0.00     0.164 C   
BRANCH  21  22
ATOM     22  C12 UNL     1      -1.275  -1.516  -2.383  1.00  0.00    -0.002 A   
ATOM     23  C13 UNL     1      -1.975  -1.791  -1.183  1.00  0.00     0.012 A   
ATOM     24  C17 UNL     1      -0.911  -2.577  -3.230  1.00  0.00     0.045 A   
ATOM     25  C14 UNL     1      -2.302  -3.103  -0.827  1.00  0.00     0.037 A   
ATOM     26  C16 UNL     1      -1.249  -3.858  -2.848  1.00  0.00     0.109 A   
ATOM     27  C15 UNL     1      -1.924  -4.114  -1.680  1.00  0.00     0.108 A   
ATOM     28  O2  UNL     1      -0.966  -4.990  -3.544  1.00  0.00    -0.316 OA  
ATOM     29  O3  UNL     1      -2.154  -5.439  -1.495  1.00  0.00    -0.316 OA  
ATOM     30  C18 UNL     1      -1.573  -5.992  -2.696  1.00  0.00     0.337 C   
ENDBRANCH  21  22
ENDBRANCH  18  21
ENDBRANCH  17  18
BRANCH  17  31
ATOM     31  C19 UNL     1       2.704   0.029  -1.372  1.00  0.00     0.043 C   
ATOM     32  C20 UNL     1       3.482  -0.168  -0.069  1.00  0.00     0.010 C   
ATOM     33  C23 UNL     1       3.332   1.292  -1.981  1.00  0.00     0.010 C   
ATOM     34  C21 UNL     1       4.906   0.171  -0.483  1.00  0.00     0.001 C   
ATOM     35  C22 UNL     1       4.749   1.373  -1.407  1.00  0.00     0.001 C   
ENDBRANCH  17  31
ENDBRANCH   3  17
TORSDOF 9
