REMARK SMILES Cc1ccc([C@@H](CO)n2cc([C@@H]([NH2+]Cc3ccc4c(c3)OCO4)C3CCCC3)nn2)s1
REMARK SMILES IDX 9 1 10 2 11 3 29 4 30 5 6 7 5 8 2 9 3 10 31 11 4 12 1 13
REMARK SMILES IDX 7 14 8 15 12 17 13 18 14 21 15 22 16 23 20 24 17 25 19 26
REMARK SMILES IDX 18 27 21 28 23 29 22 30 24 31 25 32 28 33 26 34 27 35
REMARK H PARENT 10 6 8 16 13 19 13 20
ROOT
ATOM     1   N1  UNL     1       0.394   1.101  -2.085  1.00  0.00    -0.202 N   
ATOM     2   C8  UNL     1      -0.128   0.583  -0.929  1.00  0.00     0.046 A   
ATOM     3   C9  UNL     1       0.514   1.274   0.071  1.00  0.00     0.127 A   
ATOM     4   N3  UNL     1       1.379   2.179  -0.489  1.00  0.00    -0.132 NA  
ATOM     5   N4  UNL     1       1.304   2.059  -1.804  1.00  0.00    -0.075 NA  
ATOM     6   H10 UNL     1      -0.880  -0.194  -0.934  1.00  0.00     0.083 HD  
ENDROOT
BRANCH   1   7
ATOM     7   C6  UNL     1       0.106   0.742  -3.473  1.00  0.00     0.162 C   
BRANCH   7   8
ATOM     8   C5  UNL     1       0.149  -0.764  -3.656  1.00  0.00     0.014 A   
ATOM     9   C2  UNL     1       0.963  -3.085  -3.972  1.00  0.00    -0.014 A   
ATOM     10  C3  UNL     1      -0.410  -3.022  -3.876  1.00  0.00     0.011 A   
ATOM     11  S1  UNL     1       1.676  -1.539  -3.837  1.00  0.00    -0.097 S   
ATOM     12  C4  UNL     1      -0.879  -1.689  -3.695  1.00  0.00     0.014 A   
ATOM     13  C1  UNL     1       1.823  -4.287  -4.172  1.00  0.00     0.052 C   
ENDBRANCH   7   8
BRANCH   7  14
ATOM     14  C7  UNL     1      -1.188   1.413  -3.968  1.00  0.00     0.186 C   
BRANCH  14  15
ATOM     15  O1  UNL     1      -2.333   1.065  -3.186  1.00  0.00    -0.394 OA  
ATOM     16  H9  UNL     1      -3.101   1.509  -3.594  1.00  0.00     0.210 HD  
ENDBRANCH  14  15
ENDBRANCH   7  14
ENDBRANCH   1   7
BRANCH   3  17
ATOM     17  C10 UNL     1       0.437   1.146   1.555  1.00  0.00     0.117 C   
BRANCH  17  18
ATOM     18  N2  UNL     1       1.821   1.301   2.152  1.00  0.00     0.249 N   
ATOM     19  H12 UNL     1       2.194   2.184   1.778  1.00  0.00     0.199 HD  
ATOM     20  H13 UNL     1       1.768   1.393   3.168  1.00  0.00     0.199 HD  
BRANCH  18  21
ATOM     21  C11 UNL     1       2.807   0.227   1.818  1.00  0.00     0.164 C   
BRANCH  21  22
ATOM     22  C12 UNL     1       2.438  -1.106   2.407  1.00  0.00    -0.002 A   
ATOM     23  C13 UNL     1       2.576  -1.338   3.797  1.00  0.00     0.012 A   
ATOM     24  C17 UNL     1       1.919  -2.121   1.584  1.00  0.00     0.045 A   
ATOM     25  C14 UNL     1       2.195  -2.559   4.362  1.00  0.00     0.037 A   
ATOM     26  C16 UNL     1       1.552  -3.312   2.174  1.00  0.00     0.109 A   
ATOM     27  C15 UNL     1       1.683  -3.525   3.523  1.00  0.00     0.108 A   
ATOM     28  O2  UNL     1       1.026  -4.386   1.528  1.00  0.00    -0.316 OA  
ATOM     29  O3  UNL     1       1.259  -4.759   3.898  1.00  0.00    -0.316 OA  
ATOM     30  C18 UNL     1       0.858  -5.312   2.626  1.00  0.00     0.337 C   
ENDBRANCH  21  22
ENDBRANCH  18  21
ENDBRANCH  17  18
BRANCH  17  31
ATOM     31  C19 UNL     1      -0.484   2.215   2.178  1.00  0.00     0.043 C   
ATOM     32  C20 UNL     1      -1.940   2.103   1.709  1.00  0.00     0.010 C   
ATOM     33  C23 UNL     1      -0.642   2.107   3.697  1.00  0.00     0.010 C   
ATOM     34  C21 UNL     1      -2.749   2.873   2.748  1.00  0.00     0.001 C   
ATOM     35  C22 UNL     1      -1.882   2.938   4.002  1.00  0.00     0.001 C   
ENDBRANCH  17  31
ENDBRANCH   3  17
TORSDOF 9
