REMARK SMILES Cc1ccc([C@H](O)Cn2cc([C@@H]([NH2+]Cc3ccc4c(c3)OCO4)C3CCCC3)nn2)cc1C
REMARK SMILES IDX 9 1 10 2 11 3 29 4 30 5 8 7 6 8 5 9 2 10 3 11 32 12 4 13
REMARK SMILES IDX 31 14 1 15 33 16 7 17 12 19 13 20 14 23 15 24 16 25 20 26
REMARK SMILES IDX 17 27 19 28 18 29 21 30 23 31 22 32 24 33 25 34 28 35 26 36
REMARK SMILES IDX 27 37
REMARK H PARENT 10 6 7 18 13 21 13 22
ROOT
ATOM     1   N1  UNL     1      -1.384   2.768  -0.342  1.00  0.00    -0.209 N   
ATOM     2   C8  UNL     1      -0.073   2.513  -0.632  1.00  0.00     0.045 A   
ATOM     3   C9  UNL     1       0.190   1.337   0.036  1.00  0.00     0.127 A   
ATOM     4   N3  UNL     1      -0.928   0.959   0.737  1.00  0.00    -0.132 NA  
ATOM     5   N4  UNL     1      -1.877   1.854   0.513  1.00  0.00    -0.076 NA  
ATOM     6   H10 UNL     1       0.504   3.134  -1.304  1.00  0.00     0.083 HD  
ENDROOT
BRANCH   1   7
ATOM     7   C7  UNL     1      -2.228   3.802  -0.895  1.00  0.00     0.170 C   
BRANCH   7   8
ATOM     8   C6  UNL     1      -3.278   3.260  -1.871  1.00  0.00     0.164 C   
BRANCH   8   9
ATOM     9   C5  UNL     1      -2.683   2.430  -2.993  1.00  0.00    -0.018 A   
ATOM     10  C2  UNL     1      -1.519   0.846  -5.021  1.00  0.00    -0.048 A   
ATOM     11  C3  UNL     1      -2.307   0.263  -4.018  1.00  0.00     0.004 A   
ATOM     12  C25 UNL     1      -1.318   2.240  -5.016  1.00  0.00    -0.048 A   
ATOM     13  C4  UNL     1      -2.878   1.045  -3.013  1.00  0.00     0.007 A   
ATOM     14  C24 UNL     1      -1.903   3.018  -4.002  1.00  0.00     0.010 A   
ATOM     15  C1  UNL     1      -0.930  -0.030  -6.095  1.00  0.00     0.044 C   
ATOM     16  C26 UNL     1      -0.504   2.917  -6.086  1.00  0.00     0.044 C   
ENDBRANCH   8   9
BRANCH   8  17
ATOM     17  O1  UNL     1      -3.994   4.364  -2.432  1.00  0.00    -0.387 OA  
ATOM     18  H7  UNL     1      -4.486   4.026  -3.204  1.00  0.00     0.211 HD  
ENDBRANCH   8  17
ENDBRANCH   7   8
ENDBRANCH   1   7
BRANCH   3  19
ATOM     19  C10 UNL     1       1.415   0.482   0.072  1.00  0.00     0.117 C   
BRANCH  19  20
ATOM     20  N2  UNL     1       1.318  -0.525   1.185  1.00  0.00     0.249 N   
ATOM     21  H12 UNL     1       1.859  -1.373   0.994  1.00  0.00     0.199 HD  
ATOM     22  H13 UNL     1       0.330  -0.821   1.224  1.00  0.00     0.199 HD  
BRANCH  20  23
ATOM     23  C11 UNL     1       1.668  -0.015   2.538  1.00  0.00     0.164 C   
BRANCH  23  24
ATOM     24  C12 UNL     1       1.469  -1.092   3.566  1.00  0.00    -0.002 A   
ATOM     25  C13 UNL     1       2.531  -1.962   3.907  1.00  0.00     0.012 A   
ATOM     26  C17 UNL     1       0.205  -1.277   4.153  1.00  0.00     0.045 A   
ATOM     27  C14 UNL     1       2.343  -2.998   4.829  1.00  0.00     0.037 A   
ATOM     28  C16 UNL     1       0.053  -2.311   5.054  1.00  0.00     0.109 A   
ATOM     29  C15 UNL     1       1.091  -3.147   5.384  1.00  0.00     0.108 A   
ATOM     30  O2  UNL     1      -1.096  -2.626   5.708  1.00  0.00    -0.316 OA  
ATOM     31  O3  UNL     1       0.728  -4.092   6.290  1.00  0.00    -0.316 OA  
ATOM     32  C18 UNL     1      -0.662  -3.756   6.497  1.00  0.00     0.337 C   
ENDBRANCH  23  24
ENDBRANCH  20  23
ENDBRANCH  19  20
BRANCH  19  33
ATOM     33  C19 UNL     1       1.650  -0.231  -1.275  1.00  0.00     0.043 C   
ATOM     34  C20 UNL     1       3.019  -0.923  -1.400  1.00  0.00     0.010 C   
ATOM     35  C23 UNL     1       0.640  -1.322  -1.645  1.00  0.00     0.010 C   
ATOM     36  C21 UNL     1       2.788  -2.169  -2.256  1.00  0.00     0.001 C   
ATOM     37  C22 UNL     1       1.354  -2.071  -2.758  1.00  0.00     0.001 C   
ENDBRANCH  19  33
ENDBRANCH   3  19
TORSDOF 9
