REMARK SMILES Cc1ccc([C@@H](O)Cn2cc([C@@H]([NH2+]Cc3ccc4c(c3)OCO4)C3CCCC3)nn2)cc1C
REMARK SMILES IDX 9 1 10 2 11 3 29 4 30 5 8 7 6 8 5 9 2 10 3 11 32 12 4 13
REMARK SMILES IDX 31 14 1 15 33 16 7 17 12 19 13 20 14 23 15 24 16 25 20 26
REMARK SMILES IDX 17 27 19 28 18 29 21 30 23 31 22 32 24 33 25 34 28 35 26 36
REMARK SMILES IDX 27 37
REMARK H PARENT 10 6 7 18 13 21 13 22
ROOT
ATOM     1   N1  UNL     1       0.069  -3.092   0.891  1.00  0.00    -0.209 N   
ATOM     2   C8  UNL     1       0.765  -2.117   1.549  1.00  0.00     0.045 A   
ATOM     3   C9  UNL     1      -0.177  -1.137   1.772  1.00  0.00     0.127 A   
ATOM     4   N3  UNL     1      -1.390  -1.558   1.288  1.00  0.00    -0.132 NA  
ATOM     5   N4  UNL     1      -1.225  -2.754   0.749  1.00  0.00    -0.076 NA  
ATOM     6   H10 UNL     1       1.828  -2.192   1.739  1.00  0.00     0.083 HD  
ENDROOT
BRANCH   1   7
ATOM     7   C7  UNL     1       0.587  -4.304   0.302  1.00  0.00     0.170 C   
BRANCH   7   8
ATOM     8   C6  UNL     1       0.651  -4.246  -1.228  1.00  0.00     0.164 C   
BRANCH   8   9
ATOM     9   C5  UNL     1       1.455  -3.068  -1.753  1.00  0.00    -0.018 A   
ATOM     10  C2  UNL     1       2.926  -0.852  -2.715  1.00  0.00    -0.048 A   
ATOM     11  C3  UNL     1       3.571  -1.924  -2.079  1.00  0.00     0.004 A   
ATOM     12  C25 UNL     1       1.527  -0.893  -2.881  1.00  0.00    -0.048 A   
ATOM     13  C4  UNL     1       2.846  -3.017  -1.600  1.00  0.00     0.007 A   
ATOM     14  C24 UNL     1       0.806  -1.999  -2.392  1.00  0.00     0.010 A   
ATOM     15  C1  UNL     1       3.758   0.275  -3.271  1.00  0.00     0.044 C   
ATOM     16  C26 UNL     1       0.791   0.206  -3.600  1.00  0.00     0.044 C   
ENDBRANCH   8   9
BRANCH   8  17
ATOM     17  O1  UNL     1       1.233  -5.468  -1.705  1.00  0.00    -0.387 OA  
ATOM     18  H7  UNL     1       1.523  -5.316  -2.624  1.00  0.00     0.211 HD  
ENDBRANCH   8  17
ENDBRANCH   7   8
ENDBRANCH   1   7
BRANCH   3  19
ATOM     19  C10 UNL     1      -0.042   0.245   2.321  1.00  0.00     0.117 C   
BRANCH  19  20
ATOM     20  N2  UNL     1      -0.875   1.193   1.494  1.00  0.00     0.249 N   
ATOM     21  H12 UNL     1      -0.958   2.111   1.935  1.00  0.00     0.199 HD  
ATOM     22  H13 UNL     1      -1.825   0.801   1.452  1.00  0.00     0.199 HD  
BRANCH  20  23
ATOM     23  C11 UNL     1      -0.398   1.398   0.094  1.00  0.00     0.164 C   
BRANCH  23  24
ATOM     24  C12 UNL     1      -1.395   2.206  -0.688  1.00  0.00    -0.002 A   
ATOM     25  C13 UNL     1      -1.217   3.600  -0.867  1.00  0.00     0.012 A   
ATOM     26  C17 UNL     1      -2.545   1.581  -1.201  1.00  0.00     0.045 A   
ATOM     27  C14 UNL     1      -2.160   4.359  -1.571  1.00  0.00     0.037 A   
ATOM     28  C16 UNL     1      -3.461   2.361  -1.876  1.00  0.00     0.109 A   
ATOM     29  C15 UNL     1      -3.271   3.708  -2.065  1.00  0.00     0.108 A   
ATOM     30  O2  UNL     1      -4.622   1.921  -2.420  1.00  0.00    -0.316 OA  
ATOM     31  O3  UNL     1      -4.280   4.279  -2.772  1.00  0.00    -0.316 OA  
ATOM     32  C18 UNL     1      -5.126   3.134  -3.019  1.00  0.00     0.337 C   
ENDBRANCH  23  24
ENDBRANCH  20  23
ENDBRANCH  19  20
BRANCH  19  33
ATOM     33  C19 UNL     1      -0.500   0.341   3.789  1.00  0.00     0.043 C   
ATOM     34  C20 UNL     1      -0.344   1.735   4.404  1.00  0.00     0.010 C   
ATOM     35  C23 UNL     1       0.343  -0.513   4.743  1.00  0.00     0.010 C   
ATOM     36  C21 UNL     1      -0.400   1.498   5.909  1.00  0.00     0.001 C   
ATOM     37  C22 UNL     1       0.057   0.059   6.130  1.00  0.00     0.001 C   
ENDBRANCH  19  33
ENDBRANCH   3  19
TORSDOF 9
