REMARK SMILES COc1cc(Cn2cc([C@@H]([NH2+]Cc3ccc4c(c3)OCO4)C(C)(C)C)nn2)ccc1C
REMARK SMILES IDX 7 1 8 2 9 3 26 4 27 5 6 7 5 8 3 9 4 10 30 11 29 12 28 13
REMARK SMILES IDX 31 14 2 15 1 16 10 17 11 18 12 21 13 22 14 23 18 24 15 25
REMARK SMILES IDX 17 26 16 27 19 28 21 29 20 30 22 31 23 32 24 33 25 34
REMARK H PARENT 8 6 11 19 11 20
ROOT
ATOM     1   N1  UNL     1       1.936   0.054  -1.813  1.00  0.00    -0.208 N   
ATOM     2   C6  UNL     1       1.446  -0.579  -0.704  1.00  0.00     0.046 A   
ATOM     3   C7  UNL     1       0.985  -1.784  -1.185  1.00  0.00     0.127 A   
ATOM     4   N3  UNL     1       1.254  -1.865  -2.527  1.00  0.00    -0.132 NA  
ATOM     5   N4  UNL     1       1.830  -0.734  -2.901  1.00  0.00    -0.076 NA  
ATOM     6   H7  UNL     1       1.406  -0.103   0.267  1.00  0.00     0.083 HD  
ENDROOT
BRANCH   1   7
ATOM     7   C5  UNL     1       2.374   1.436  -1.930  1.00  0.00     0.169 C   
BRANCH   7   8
ATOM     8   C4  UNL     1       1.197   2.365  -1.748  1.00  0.00    -0.026 A   
ATOM     9   C2  UNL     1      -0.169   3.788  -0.316  1.00  0.00     0.078 A   
ATOM     10  C3  UNL     1       0.967   2.995  -0.513  1.00  0.00     0.039 A   
ATOM     11  C23 UNL     1      -1.097   3.949  -1.357  1.00  0.00    -0.021 A   
ATOM     12  C22 UNL     1      -0.856   3.337  -2.595  1.00  0.00     0.006 A   
ATOM     13  C21 UNL     1       0.279   2.552  -2.789  1.00  0.00     0.006 A   
ATOM     14  C24 UNL     1      -2.327   4.793  -1.165  1.00  0.00     0.047 C   
BRANCH   9  15
ATOM     15  O1  UNL     1      -0.481   4.405   0.866  1.00  0.00    -0.349 OA  
ATOM     16  C1  UNL     1       0.596   4.666   1.758  1.00  0.00     0.203 C   
ENDBRANCH   9  15
ENDBRANCH   7   8
ENDBRANCH   1   7
BRANCH   3  17
ATOM     17  C8  UNL     1       0.177  -2.852  -0.516  1.00  0.00     0.120 C   
BRANCH  17  18
ATOM     18  N2  UNL     1      -0.936  -3.307  -1.443  1.00  0.00     0.250 N   
ATOM     19  H9  UNL     1      -1.458  -4.080  -1.026  1.00  0.00     0.199 HD  
ATOM     20  H10 UNL     1      -0.484  -3.661  -2.296  1.00  0.00     0.199 HD  
BRANCH  18  21
ATOM     21  C9  UNL     1      -1.915  -2.261  -1.886  1.00  0.00     0.164 C   
BRANCH  21  22
ATOM     22  C10 UNL     1      -2.604  -1.555  -0.752  1.00  0.00    -0.002 A   
ATOM     23  C11 UNL     1      -2.331  -0.188  -0.498  1.00  0.00     0.012 A   
ATOM     24  C15 UNL     1      -3.505  -2.246   0.077  1.00  0.00     0.045 A   
ATOM     25  C12 UNL     1      -2.934   0.481   0.571  1.00  0.00     0.037 A   
ATOM     26  C14 UNL     1      -4.083  -1.556   1.122  1.00  0.00     0.109 A   
ATOM     27  C13 UNL     1      -3.806  -0.232   1.364  1.00  0.00     0.108 A   
ATOM     28  O2  UNL     1      -4.966  -2.074   2.017  1.00  0.00    -0.316 OA  
ATOM     29  O3  UNL     1      -4.480   0.248   2.441  1.00  0.00    -0.316 OA  
ATOM     30  C16 UNL     1      -5.247  -0.912   2.830  1.00  0.00     0.337 C   
ENDBRANCH  21  22
ENDBRANCH  18  21
ENDBRANCH  17  18
BRANCH  17  31
ATOM     31  C17 UNL     1       1.018  -4.081  -0.021  1.00  0.00     0.010 C   
ATOM     32  C18 UNL     1       0.119  -5.078   0.746  1.00  0.00     0.017 C   
ATOM     33  C19 UNL     1       1.706  -4.842  -1.171  1.00  0.00     0.017 C   
ATOM     34  C20 UNL     1       2.109  -3.606   0.967  1.00  0.00     0.017 C   
ENDBRANCH  17  31
ENDBRANCH   3  17
TORSDOF 8
