REMARK SMILES Cc1cccc(-n2cc([C@@H]([NH2+]Cc3ccc4c(c3)OCO4)C(C)(C)C)nn2)c1N([O-])[O-]
REMARK SMILES IDX 7 1 8 2 9 3 26 4 27 5 6 6 2 7 3 8 28 9 4 10 5 11 1 12 29 13
REMARK SMILES IDX 30 14 31 15 10 16 11 17 12 20 13 21 14 22 18 23 15 24 17 25
REMARK SMILES IDX 16 26 19 27 21 28 20 29 22 30 23 31 24 32 25 33
REMARK H PARENT 11 18 11 19
ROOT
ATOM     1   N1  UNL     1      -0.850   0.633   2.833  1.00  0.00    -0.178 N   
ATOM     2   C7  UNL     1      -1.447   0.345   1.622  1.00  0.00     0.135 A   
ATOM     3   C8  UNL     1      -0.635  -0.594   1.024  1.00  0.00     0.128 A   
ATOM     4   N3  UNL     1       0.398  -0.884   1.865  1.00  0.00    -0.131 NA  
ATOM     5   N4  UNL     1       0.239  -0.174   2.968  1.00  0.00    -0.071 NA  
ENDROOT
BRANCH   1   6
ATOM     6   C6  UNL     1      -1.201   1.556   3.858  1.00  0.00     0.086 A   
ATOM     7   C2  UNL     1      -2.398   3.524   4.751  1.00  0.00    -0.020 A   
ATOM     8   C3  UNL     1      -1.865   3.252   6.018  1.00  0.00     0.006 A   
ATOM     9   C22 UNL     1      -2.055   2.664   3.682  1.00  0.00     0.144 A   
ATOM     10  C4  UNL     1      -0.996   2.178   6.206  1.00  0.00     0.002 A   
ATOM     11  C5  UNL     1      -0.659   1.343   5.139  1.00  0.00     0.028 A   
ATOM     12  C1  UNL     1      -3.301   4.718   4.582  1.00  0.00     0.047 C   
BRANCH   9  13
ATOM     13  N5  UNL     1      -2.504   3.039   2.357  1.00  0.00     0.094 N   
ATOM     14  O3  UNL     1      -3.701   2.870   2.097  1.00  0.00    -0.138 OA  
ATOM     15  O4  UNL     1      -1.639   3.429   1.562  1.00  0.00    -0.138 OA  
ENDBRANCH   9  13
ENDBRANCH   1   6
BRANCH   3  16
ATOM     16  C9  UNL     1      -0.699  -1.233  -0.332  1.00  0.00     0.120 C   
BRANCH  16  17
ATOM     17  N2  UNL     1       0.708  -1.385  -0.862  1.00  0.00     0.250 N   
ATOM     18  H9  UNL     1       0.763  -2.057  -1.633  1.00  0.00     0.199 HD  
ATOM     19  H10 UNL     1       1.277  -1.780  -0.099  1.00  0.00     0.199 HD  
BRANCH  17  20
ATOM     20  C10 UNL     1       1.368  -0.121  -1.297  1.00  0.00     0.164 C   
BRANCH  20  21
ATOM     21  C11 UNL     1       2.779  -0.394  -1.732  1.00  0.00    -0.002 A   
ATOM     22  C12 UNL     1       3.827  -0.397  -0.780  1.00  0.00     0.012 A   
ATOM     23  C16 UNL     1       3.060  -0.708  -3.072  1.00  0.00     0.045 A   
ATOM     24  C13 UNL     1       5.140  -0.696  -1.158  1.00  0.00     0.037 A   
ATOM     25  C15 UNL     1       4.365  -0.999  -3.411  1.00  0.00     0.109 A   
ATOM     26  C14 UNL     1       5.376  -0.993  -2.482  1.00  0.00     0.108 A   
ATOM     27  O1  UNL     1       4.804  -1.323  -4.655  1.00  0.00    -0.316 OA  
ATOM     28  O2  UNL     1       6.580  -1.310  -3.025  1.00  0.00    -0.316 OA  
ATOM     29  C17 UNL     1       6.219  -1.496  -4.410  1.00  0.00     0.337 C   
ENDBRANCH  20  21
ENDBRANCH  17  20
ENDBRANCH  16  17
BRANCH  16  30
ATOM     30  C18 UNL     1      -1.447  -2.612  -0.360  1.00  0.00     0.010 C   
ATOM     31  C19 UNL     1      -2.877  -2.454   0.205  1.00  0.00     0.017 C   
ATOM     32  C20 UNL     1      -1.594  -3.114  -1.815  1.00  0.00     0.017 C   
ATOM     33  C21 UNL     1      -0.721  -3.700   0.456  1.00  0.00     0.017 C   
ENDBRANCH  16  30
ENDBRANCH   3  16
TORSDOF 7
