REMARK SMILES Cc1ccc(-n2cc([C@@H]([NH2+]Cc3ccc4c(c3)OCO4)C3CCCCC3)nn2)c(N([O-])[O-])c1
REMARK SMILES IDX 6 1 7 2 8 3 27 4 28 5 5 6 2 7 3 8 33 9 4 10 29 11 1 12 30 13
REMARK SMILES IDX 31 14 32 15 9 16 10 17 11 20 12 21 13 22 17 23 14 24 16 25
REMARK SMILES IDX 15 26 18 27 20 28 19 29 21 30 22 31 26 32 23 33 25 34 24 35
REMARK H PARENT 10 18 10 19
ROOT
ATOM     1   N1  UNL     1      -1.098   1.454   0.340  1.00  0.00    -0.178 N   
ATOM     2   C6  UNL     1      -0.630   0.349   1.033  1.00  0.00     0.135 A   
ATOM     3   C7  UNL     1       0.717   0.294   0.750  1.00  0.00     0.127 A   
ATOM     4   N3  UNL     1       1.049   1.359  -0.034  1.00  0.00    -0.131 NA  
ATOM     5   N4  UNL     1      -0.046   2.063  -0.252  1.00  0.00    -0.071 NA  
ENDROOT
BRANCH   1   6
ATOM     6   C5  UNL     1      -2.423   1.949   0.245  1.00  0.00     0.086 A   
ATOM     7   C2  UNL     1      -5.073   2.964   0.169  1.00  0.00    -0.049 A   
ATOM     8   C3  UNL     1      -4.701   1.999   1.111  1.00  0.00     0.005 A   
ATOM     9   C24 UNL     1      -4.116   3.429  -0.735  1.00  0.00     0.036 A   
ATOM     10  C4  UNL     1      -3.397   1.488   1.147  1.00  0.00     0.028 A   
ATOM     11  C23 UNL     1      -2.810   2.915  -0.701  1.00  0.00     0.141 A   
ATOM     12  C1  UNL     1      -6.464   3.528   0.161  1.00  0.00     0.044 C   
BRANCH  11  13
ATOM     13  N5  UNL     1      -1.933   3.355  -1.773  1.00  0.00     0.094 N   
ATOM     14  O3  UNL     1      -1.579   4.540  -1.760  1.00  0.00    -0.138 OA  
ATOM     15  O4  UNL     1      -1.648   2.517  -2.639  1.00  0.00    -0.138 OA  
ENDBRANCH  11  13
ENDBRANCH   1   6
BRANCH   3  16
ATOM     16  C8  UNL     1       1.757  -0.743   1.032  1.00  0.00     0.117 C   
BRANCH  16  17
ATOM     17  N2  UNL     1       2.573  -0.972  -0.230  1.00  0.00     0.249 N   
ATOM     18  H8  UNL     1       3.563  -1.111  -0.003  1.00  0.00     0.199 HD  
ATOM     19  H9  UNL     1       2.529  -0.086  -0.761  1.00  0.00     0.199 HD  
BRANCH  17  20
ATOM     20  C9  UNL     1       2.126  -2.080  -1.126  1.00  0.00     0.164 C   
BRANCH  20  21
ATOM     21  C10 UNL     1       0.689  -1.990  -1.560  1.00  0.00    -0.002 A   
ATOM     22  C11 UNL     1       0.279  -1.005  -2.491  1.00  0.00     0.012 A   
ATOM     23  C15 UNL     1      -0.272  -2.855  -1.005  1.00  0.00     0.045 A   
ATOM     24  C12 UNL     1      -1.067  -0.872  -2.851  1.00  0.00     0.037 A   
ATOM     25  C14 UNL     1      -1.589  -2.694  -1.379  1.00  0.00     0.109 A   
ATOM     26  C13 UNL     1      -1.978  -1.729  -2.275  1.00  0.00     0.108 A   
ATOM     27  O1  UNL     1      -2.637  -3.428  -0.918  1.00  0.00    -0.316 OA  
ATOM     28  O2  UNL     1      -3.318  -1.734  -2.491  1.00  0.00    -0.316 OA  
ATOM     29  C16 UNL     1      -3.725  -2.858  -1.682  1.00  0.00     0.337 C   
ENDBRANCH  20  21
ENDBRANCH  17  20
ENDBRANCH  16  17
BRANCH  16  30
ATOM     30  C17 UNL     1       2.721  -0.390   2.193  1.00  0.00     0.043 C   
ATOM     31  C18 UNL     1       3.508   0.922   2.000  1.00  0.00     0.010 C   
ATOM     32  C22 UNL     1       1.983  -0.370   3.547  1.00  0.00     0.010 C   
ATOM     33  C19 UNL     1       4.466   1.176   3.163  1.00  0.00     0.001 C   
ATOM     34  C21 UNL     1       2.942  -0.110   4.707  1.00  0.00     0.001 C   
ATOM     35  C20 UNL     1       3.738   1.175   4.502  1.00  0.00     0.000 C   
ENDBRANCH  16  30
ENDBRANCH   3  16
TORSDOF 7
