REMARK SMILES CC(C)(C)[C@H]([NH2+]Cc1ccc2c(c1)OCO2)c1cn(Cc2cccc(Cl)c2O)nn1
REMARK SMILES IDX 17 1 18 2 19 3 29 4 30 5 5 7 2 8 1 9 3 10 4 11 6 12 7 15
REMARK SMILES IDX 8 16 9 17 13 18 10 19 12 20 11 21 14 22 16 23 15 24 20 25
REMARK SMILES IDX 21 26 22 27 27 28 23 29 25 30 24 31 26 32 28 33
REMARK H PARENT 18 6 6 13 6 14 28 34
ROOT
ATOM     1   C14 UNL     1      -0.957   0.641  -0.949  1.00  0.00     0.127 A   
ATOM     2   C15 UNL     1      -1.723   0.008   0.004  1.00  0.00     0.046 A   
ATOM     3   N2  UNL     1      -2.001  -1.211  -0.547  1.00  0.00    -0.208 N   
ATOM     4   N3  UNL     1      -1.484  -1.302  -1.790  1.00  0.00    -0.076 NA  
ATOM     5   N4  UNL     1      -0.836  -0.176  -2.043  1.00  0.00    -0.132 NA  
ATOM     6   H20 UNL     1      -2.033   0.271   1.007  1.00  0.00     0.083 HD  
ENDROOT
BRANCH   1   7
ATOM     7   C5  UNL     1      -0.210   1.935  -0.889  1.00  0.00     0.120 C   
BRANCH   7   8
ATOM     8   C2  UNL     1      -0.947   3.136  -1.585  1.00  0.00     0.010 C   
ATOM     9   C1  UNL     1      -1.129   2.936  -3.102  1.00  0.00     0.017 C   
ATOM     10  C3  UNL     1      -0.163   4.450  -1.363  1.00  0.00     0.017 C   
ATOM     11  C4  UNL     1      -2.344   3.332  -0.952  1.00  0.00     0.017 C   
ENDBRANCH   7   8
BRANCH   7  12
ATOM     12  N1  UNL     1       1.182   1.760  -1.473  1.00  0.00     0.250 N   
ATOM     13  H11 UNL     1       1.683   2.650  -1.473  1.00  0.00     0.199 HD  
ATOM     14  H12 UNL     1       1.057   1.468  -2.450  1.00  0.00     0.199 HD  
BRANCH  12  15
ATOM     15  C6  UNL     1       2.060   0.724  -0.837  1.00  0.00     0.164 C   
BRANCH  15  16
ATOM     16  C7  UNL     1       2.235   0.899   0.646  1.00  0.00    -0.002 A   
ATOM     17  C8  UNL     1       2.992   1.974   1.168  1.00  0.00     0.012 A   
ATOM     18  C12 UNL     1       1.610   0.001   1.530  1.00  0.00     0.045 A   
ATOM     19  C9  UNL     1       3.113   2.159   2.550  1.00  0.00     0.037 A   
ATOM     20  C11 UNL     1       1.740   0.216   2.885  1.00  0.00     0.109 A   
ATOM     21  C10 UNL     1       2.473   1.265   3.381  1.00  0.00     0.108 A   
ATOM     22  O1  UNL     1       1.178  -0.538   3.866  1.00  0.00    -0.316 OA  
ATOM     23  O2  UNL     1       2.475   1.298   4.738  1.00  0.00    -0.316 OA  
ATOM     24  C13 UNL     1       1.693   0.124   5.045  1.00  0.00     0.337 C   
ENDBRANCH  15  16
ENDBRANCH  12  15
ENDBRANCH   7  12
ENDBRANCH   1   7
BRANCH   3  25
ATOM     25  C16 UNL     1      -2.720  -2.323   0.052  1.00  0.00     0.172 C   
BRANCH  25  26
ATOM     26  C17 UNL     1      -1.772  -3.379   0.563  1.00  0.00     0.003 A   
ATOM     27  C18 UNL     1      -1.607  -4.578  -0.150  1.00  0.00     0.008 A   
ATOM     28  C22 UNL     1      -1.029  -3.196   1.736  1.00  0.00     0.095 A   
ATOM     29  C19 UNL     1      -0.732  -5.568   0.306  1.00  0.00     0.002 A   
ATOM     30  C21 UNL     1      -0.151  -4.187   2.192  1.00  0.00     0.071 A   
ATOM     31  C20 UNL     1      -0.003  -5.374   1.479  1.00  0.00     0.023 A   
ATOM     32  CL1 UNL     1       0.763  -3.948   3.634  1.00  0.00    -0.081 Cl  
BRANCH  28  33
ATOM     33  O3  UNL     1      -1.174  -2.016   2.420  1.00  0.00    -0.359 OA  
ATOM     34  H26 UNL     1      -0.572  -2.051   3.194  1.00  0.00     0.218 HD  
ENDBRANCH  28  33
ENDBRANCH  25  26
ENDBRANCH   3  25
TORSDOF 8
