REMARK SMILES CC(C)C[C@H]([NH2+]Cc1ccc2c(c1)OCO2)c1cn(CCc2[nH]nc3c2CCC3)nn1
REMARK SMILES IDX 17 1 18 2 19 3 30 4 31 5 5 7 4 8 2 9 1 10 3 11 6 12 7 15
REMARK SMILES IDX 8 16 9 17 13 18 10 19 12 20 11 21 14 22 16 23 15 24 20 25
REMARK SMILES IDX 21 26 22 27 23 28 26 29 24 30 25 31 27 32 29 33 28 34
REMARK H PARENT 18 6 6 13 6 14 23 35
ROOT
ATOM     1   C14 UNL     1      -2.312   0.635  -1.713  1.00  0.00     0.127 A   
ATOM     2   C15 UNL     1      -3.121  -0.428  -2.064  1.00  0.00     0.045 A   
ATOM     3   N2  UNL     1      -2.604  -0.849  -3.264  1.00  0.00    -0.212 N   
ATOM     4   N5  UNL     1      -1.666   0.015  -3.708  1.00  0.00    -0.076 NA  
ATOM     5   N6  UNL     1      -1.455   0.904  -2.750  1.00  0.00    -0.132 NA  
ATOM     6   H20 UNL     1      -3.861  -1.003  -1.522  1.00  0.00     0.083 HD  
ENDROOT
BRANCH   1   7
ATOM     7   C5  UNL     1      -2.150   1.311  -0.385  1.00  0.00     0.114 C   
BRANCH   7   8
ATOM     8   C4  UNL     1      -2.562   2.797  -0.413  1.00  0.00     0.064 C   
BRANCH   8   9
ATOM     9   C2  UNL     1      -1.682   3.763  -1.244  1.00  0.00    -0.012 C   
ATOM     10  C1  UNL     1      -2.568   4.720  -2.050  1.00  0.00     0.007 C   
ATOM     11  C3  UNL     1      -0.743   4.584  -0.361  1.00  0.00     0.007 C   
ENDBRANCH   8   9
ENDBRANCH   7   8
BRANCH   7  12
ATOM     12  N1  UNL     1      -0.758   1.108   0.132  1.00  0.00     0.249 N   
ATOM     13  H11 UNL     1      -0.504   0.102  -0.017  1.00  0.00     0.199 HD  
ATOM     14  H12 UNL     1      -0.089   1.597  -0.470  1.00  0.00     0.199 HD  
BRANCH  12  15
ATOM     15  C6  UNL     1      -0.518   1.381   1.568  1.00  0.00     0.164 C   
BRANCH  15  16
ATOM     16  C7  UNL     1       0.888   1.042   1.986  1.00  0.00    -0.002 A   
ATOM     17  C8  UNL     1       1.990   1.802   1.515  1.00  0.00     0.012 A   
ATOM     18  C12 UNL     1       1.119  -0.047   2.847  1.00  0.00     0.045 A   
ATOM     19  C9  UNL     1       3.300   1.480   1.893  1.00  0.00     0.037 A   
ATOM     20  C11 UNL     1       2.421  -0.336   3.200  1.00  0.00     0.109 A   
ATOM     21  C10 UNL     1       3.482   0.406   2.737  1.00  0.00     0.108 A   
ATOM     22  O1  UNL     1       2.809  -1.349   4.021  1.00  0.00    -0.316 OA  
ATOM     23  O2  UNL     1       4.675  -0.045   3.208  1.00  0.00    -0.316 OA  
ATOM     24  C13 UNL     1       4.242  -1.152   4.035  1.00  0.00     0.337 C   
ENDBRANCH  15  16
ENDBRANCH  12  15
ENDBRANCH   7  12
ENDBRANCH   1   7
BRANCH   3  25
ATOM     25  C16 UNL     1      -2.653  -2.204  -3.789  1.00  0.00     0.140 C   
BRANCH  25  26
ATOM     26  C17 UNL     1      -1.352  -2.993  -3.518  1.00  0.00     0.074 C   
BRANCH  26  27
ATOM     27  C18 UNL     1      -0.870  -2.817  -2.112  1.00  0.00     0.032 A   
ATOM     28  N3  UNL     1      -0.014  -1.783  -1.764  1.00  0.00    -0.242 N   
ATOM     29  C20 UNL     1      -1.143  -3.439  -0.927  1.00  0.00    -0.006 A   
ATOM     30  N4  UNL     1       0.002  -1.527  -0.417  1.00  0.00    -0.189 NA  
ATOM     31  C19 UNL     1      -0.572  -2.632   0.058  1.00  0.00     0.063 A   
ATOM     32  C21 UNL     1      -1.886  -4.577  -0.355  1.00  0.00     0.039 C   
ATOM     33  C23 UNL     1      -0.844  -3.119   1.427  1.00  0.00     0.058 C   
ATOM     34  C22 UNL     1      -1.946  -4.200   1.165  1.00  0.00     0.011 C   
ATOM     35  H25 UNL     1       0.432  -1.126  -2.398  1.00  0.00     0.175 HD  
ENDBRANCH  26  27
ENDBRANCH  25  26
ENDBRANCH   3  25
TORSDOF 9
