REMARK SMILES COc1cc(C)c(F)cc1Cn1cc([C@@H]([NH2+]Cc2ccc3c(c2)OCO3)C(C)(C)C)nn1
REMARK SMILES IDX 12 1 13 2 14 3 31 4 32 5 11 7 10 8 3 9 4 10 5 11 9 12 7 13
REMARK SMILES IDX 6 14 8 15 2 16 1 17 15 18 16 19 17 22 18 23 19 24 23 25
REMARK SMILES IDX 20 26 22 27 21 28 24 29 26 30 25 31 27 32 28 33 29 34 30 35
REMARK H PARENT 13 6 16 20 16 21
ROOT
ATOM     1   N1  UNL     1      -1.019   1.009   2.632  1.00  0.00    -0.208 N   
ATOM     2   C10 UNL     1      -1.854   0.459   1.698  1.00  0.00     0.046 A   
ATOM     3   C11 UNL     1      -1.315  -0.785   1.458  1.00  0.00     0.127 A   
ATOM     4   N3  UNL     1      -0.194  -0.945   2.233  1.00  0.00    -0.132 NA  
ATOM     5   N4  UNL     1      -0.023   0.156   2.945  1.00  0.00    -0.076 NA  
ATOM     6   H11 UNL     1      -2.705   0.995   1.301  1.00  0.00     0.083 HD  
ENDROOT
BRANCH   1   7
ATOM     7   C9  UNL     1      -1.097   2.320   3.253  1.00  0.00     0.172 C   
BRANCH   7   8
ATOM     8   C8  UNL     1      -0.432   3.363   2.389  1.00  0.00     0.005 A   
ATOM     9   C2  UNL     1      -1.159   4.107   1.440  1.00  0.00     0.080 A   
ATOM     10  C3  UNL     1      -0.500   5.056   0.645  1.00  0.00     0.040 A   
ATOM     11  C4  UNL     1       0.880   5.269   0.777  1.00  0.00    -0.013 A   
ATOM     12  C7  UNL     1       0.949   3.583   2.518  1.00  0.00     0.047 A   
ATOM     13  C6  UNL     1       1.586   4.528   1.723  1.00  0.00     0.126 A   
ATOM     14  C5  UNL     1       1.587   6.303  -0.047  1.00  0.00     0.047 C   
ATOM     15  F1  UNL     1       2.904   4.716   1.873  1.00  0.00    -0.207 F   
BRANCH   9  16
ATOM     16  O1  UNL     1      -2.496   3.817   1.351  1.00  0.00    -0.349 OA  
ATOM     17  C1  UNL     1      -3.311   4.743   0.639  1.00  0.00     0.203 C   
ENDBRANCH   9  16
ENDBRANCH   7   8
ENDBRANCH   1   7
BRANCH   3  18
ATOM     18  C12 UNL     1      -1.690  -1.860   0.483  1.00  0.00     0.120 C   
BRANCH  18  19
ATOM     19  N2  UNL     1      -0.420  -2.496  -0.034  1.00  0.00     0.250 N   
ATOM     20  H13 UNL     1       0.184  -2.652   0.788  1.00  0.00     0.199 HD  
ATOM     21  H14 UNL     1      -0.579  -3.417  -0.449  1.00  0.00     0.199 HD  
BRANCH  19  22
ATOM     22  C13 UNL     1       0.361  -1.665  -0.993  1.00  0.00     0.164 C   
BRANCH  22  23
ATOM     23  C14 UNL     1       1.642  -2.357  -1.362  1.00  0.00    -0.002 A   
ATOM     24  C15 UNL     1       2.800  -2.174  -0.570  1.00  0.00     0.012 A   
ATOM     25  C19 UNL     1       1.684  -3.231  -2.461  1.00  0.00     0.045 A   
ATOM     26  C16 UNL     1       3.992  -2.841  -0.876  1.00  0.00     0.037 A   
ATOM     27  C18 UNL     1       2.874  -3.873  -2.734  1.00  0.00     0.109 A   
ATOM     28  C17 UNL     1       3.996  -3.684  -1.964  1.00  0.00     0.108 A   
ATOM     29  O2  UNL     1       3.085  -4.744  -3.755  1.00  0.00    -0.316 OA  
ATOM     30  O3  UNL     1       5.055  -4.411  -2.405  1.00  0.00    -0.316 OA  
ATOM     31  C20 UNL     1       4.482  -5.063  -3.559  1.00  0.00     0.337 C   
ENDBRANCH  22  23
ENDBRANCH  19  22
ENDBRANCH  18  19
BRANCH  18  32
ATOM     32  C21 UNL     1      -2.651  -2.953   1.067  1.00  0.00     0.010 C   
ATOM     33  C22 UNL     1      -3.093  -3.930  -0.048  1.00  0.00     0.017 C   
ATOM     34  C23 UNL     1      -2.002  -3.774   2.199  1.00  0.00     0.017 C   
ATOM     35  C24 UNL     1      -3.935  -2.294   1.620  1.00  0.00     0.017 C   
ENDBRANCH  18  32
ENDBRANCH   3  18
TORSDOF 8
