REMARK SMILES CCC[C@@H](c1cnn[nH]1)n1cc([C@@H]([NH2+]Cc2ccc3c(c2)OCO3)C(C)C)nn1
REMARK SMILES IDX 10 1 11 2 12 3 28 4 29 5 4 7 3 8 2 9 1 10 5 11 6 12 9 13
REMARK SMILES IDX 7 14 8 15 13 17 14 18 15 21 16 22 17 23 21 24 18 25 20 26
REMARK SMILES IDX 19 27 22 28 24 29 23 30 25 31 26 32 27 33
REMARK H PARENT 11 6 9 16 14 19 14 20
ROOT
ATOM     1   N4  UNL     1      -2.573   0.418   0.570  1.00  0.00    -0.203 N   
ATOM     2   C7  UNL     1      -2.115   1.448  -0.210  1.00  0.00     0.046 A   
ATOM     3   C8  UNL     1      -1.022   0.913  -0.860  1.00  0.00     0.127 A   
ATOM     4   N6  UNL     1      -0.845  -0.385  -0.449  1.00  0.00    -0.132 NA  
ATOM     5   N7  UNL     1      -1.804  -0.681   0.410  1.00  0.00    -0.075 NA  
ATOM     6   H11 UNL     1      -2.586   2.421  -0.222  1.00  0.00     0.083 HD  
ENDROOT
BRANCH   1   7
ATOM     7   C4  UNL     1      -3.700   0.421   1.505  1.00  0.00     0.147 C   
BRANCH   7   8
ATOM     8   C3  UNL     1      -4.771  -0.632   1.152  1.00  0.00     0.031 C   
BRANCH   8   9
ATOM     9   C2  UNL     1      -5.412  -0.383  -0.217  1.00  0.00    -0.001 C   
ATOM     10  C1  UNL     1      -6.524  -1.381  -0.504  1.00  0.00     0.004 C   
ENDBRANCH   8   9
ENDBRANCH   7   8
BRANCH   7  11
ATOM     11  C5  UNL     1      -3.191   0.252   2.899  1.00  0.00     0.069 A   
ATOM     12  C6  UNL     1      -3.300   1.016   4.040  1.00  0.00     0.160 A   
ATOM     13  N3  UNL     1      -2.425  -0.811   3.304  1.00  0.00    -0.220 N   
ATOM     14  N1  UNL     1      -2.586   0.435   5.047  1.00  0.00    -0.141 NA  
ATOM     15  N2  UNL     1      -2.041  -0.677   4.579  1.00  0.00    -0.079 NA  
ATOM     16  H10 UNL     1      -2.096  -1.611   2.772  1.00  0.00     0.177 HD  
ENDBRANCH   7  11
ENDBRANCH   1   7
BRANCH   3  17
ATOM     17  C9  UNL     1      -0.049   1.509  -1.830  1.00  0.00     0.117 C   
BRANCH  17  18
ATOM     18  N5  UNL     1       1.313   0.904  -1.615  1.00  0.00     0.249 N   
ATOM     19  H13 UNL     1       1.856   0.852  -2.478  1.00  0.00     0.199 HD  
ATOM     20  H14 UNL     1       1.159  -0.075  -1.328  1.00  0.00     0.199 HD  
BRANCH  18  21
ATOM     21  C10 UNL     1       2.136   1.552  -0.560  1.00  0.00     0.164 C   
BRANCH  21  22
ATOM     22  C11 UNL     1       3.399   0.776  -0.317  1.00  0.00    -0.002 A   
ATOM     23  C12 UNL     1       3.550   0.015   0.867  1.00  0.00     0.012 A   
ATOM     24  C16 UNL     1       4.423   0.764  -1.286  1.00  0.00     0.045 A   
ATOM     25  C13 UNL     1       4.703  -0.746   1.090  1.00  0.00     0.037 A   
ATOM     26  C15 UNL     1       5.538  -0.013  -1.044  1.00  0.00     0.109 A   
ATOM     27  C14 UNL     1       5.676  -0.745   0.111  1.00  0.00     0.108 A   
ATOM     28  O1  UNL     1       6.589  -0.168  -1.889  1.00  0.00    -0.316 OA  
ATOM     29  O2  UNL     1       6.844  -1.434   0.150  1.00  0.00    -0.316 OA  
ATOM     30  C17 UNL     1       7.407  -1.094  -1.135  1.00  0.00     0.337 C   
ENDBRANCH  21  22
ENDBRANCH  18  21
ENDBRANCH  17  18
BRANCH  17  31
ATOM     31  C18 UNL     1      -0.497   1.332  -3.308  1.00  0.00     0.037 C   
ATOM     32  C19 UNL     1       0.345   2.197  -4.261  1.00  0.00     0.014 C   
ATOM     33  C20 UNL     1      -0.496  -0.125  -3.795  1.00  0.00     0.014 C   
ENDBRANCH  17  31
ENDBRANCH   3  17
TORSDOF 9
