REMARK SMILES CCC[C@H](c1cnn[nH]1)n1cc([C@@H]([NH2+]Cc2ccc3c(c2)OCO3)C(C)C)nn1
REMARK SMILES IDX 10 1 11 2 12 3 28 4 29 5 4 7 3 8 2 9 1 10 5 11 6 12 9 13
REMARK SMILES IDX 7 14 8 15 13 17 14 18 15 21 16 22 17 23 21 24 18 25 20 26
REMARK SMILES IDX 19 27 22 28 24 29 23 30 25 31 26 32 27 33
REMARK H PARENT 11 6 9 16 14 19 14 20
ROOT
ATOM     1   N4  UNL     1      -1.356  -0.569  -1.373  1.00  0.00    -0.203 N   
ATOM     2   C7  UNL     1      -1.627  -1.443  -0.353  1.00  0.00     0.046 A   
ATOM     3   C8  UNL     1      -1.073  -0.848   0.758  1.00  0.00     0.127 A   
ATOM     4   N6  UNL     1      -0.491   0.338   0.387  1.00  0.00    -0.132 NA  
ATOM     5   N7  UNL     1      -0.652   0.487  -0.917  1.00  0.00    -0.075 NA  
ATOM     6   H11 UNL     1      -2.152  -2.375  -0.511  1.00  0.00     0.083 HD  
ENDROOT
BRANCH   1   7
ATOM     7   C4  UNL     1      -1.619  -0.712  -2.805  1.00  0.00     0.147 C   
BRANCH   7   8
ATOM     8   C3  UNL     1      -3.098  -1.002  -3.121  1.00  0.00     0.031 C   
BRANCH   8   9
ATOM     9   C2  UNL     1      -4.023   0.153  -2.725  1.00  0.00    -0.001 C   
ATOM     10  C1  UNL     1      -5.469  -0.143  -3.091  1.00  0.00     0.004 C   
ENDBRANCH   8   9
ENDBRANCH   7   8
BRANCH   7  11
ATOM     11  C5  UNL     1      -0.696  -1.756  -3.345  1.00  0.00     0.069 A   
ATOM     12  C6  UNL     1      -0.821  -3.102  -3.611  1.00  0.00     0.160 A   
ATOM     13  N3  UNL     1       0.609  -1.489  -3.670  1.00  0.00    -0.220 N   
ATOM     14  N1  UNL     1       0.380  -3.598  -4.021  1.00  0.00    -0.141 NA  
ATOM     15  N2  UNL     1       1.254  -2.603  -4.038  1.00  0.00    -0.079 NA  
ATOM     16  H10 UNL     1       1.127  -0.616  -3.641  1.00  0.00     0.177 HD  
ENDBRANCH   7  11
ENDBRANCH   1   7
BRANCH   3  17
ATOM     17  C9  UNL     1      -0.989  -1.302   2.182  1.00  0.00     0.117 C   
BRANCH  17  18
ATOM     18  N5  UNL     1       0.195  -0.676   2.868  1.00  0.00     0.249 N   
ATOM     19  H13 UNL     1       0.111  -0.704   3.888  1.00  0.00     0.199 HD  
ATOM     20  H14 UNL     1       0.200   0.321   2.606  1.00  0.00     0.199 HD  
BRANCH  18  21
ATOM     21  C10 UNL     1       1.522  -1.236   2.484  1.00  0.00     0.164 C   
BRANCH  21  22
ATOM     22  C11 UNL     1       2.626  -0.498   3.187  1.00  0.00    -0.002 A   
ATOM     23  C12 UNL     1       3.200  -1.020   4.370  1.00  0.00     0.012 A   
ATOM     24  C16 UNL     1       3.062   0.746   2.696  1.00  0.00     0.045 A   
ATOM     25  C13 UNL     1       4.202  -0.321   5.051  1.00  0.00     0.037 A   
ATOM     26  C15 UNL     1       4.051   1.409   3.392  1.00  0.00     0.109 A   
ATOM     27  C14 UNL     1       4.605   0.891   4.536  1.00  0.00     0.108 A   
ATOM     28  O1  UNL     1       4.581   2.614   3.057  1.00  0.00    -0.316 OA  
ATOM     29  O2  UNL     1       5.559   1.702   5.062  1.00  0.00    -0.316 OA  
ATOM     30  C17 UNL     1       5.562   2.783   4.106  1.00  0.00     0.337 C   
ENDBRANCH  21  22
ENDBRANCH  18  21
ENDBRANCH  17  18
BRANCH  17  31
ATOM     31  C18 UNL     1      -2.291  -0.998   2.969  1.00  0.00     0.037 C   
ATOM     32  C19 UNL     1      -2.543   0.497   3.199  1.00  0.00     0.014 C   
ATOM     33  C20 UNL     1      -2.332  -1.742   4.309  1.00  0.00     0.014 C   
ENDBRANCH  17  31
ENDBRANCH   3  17
TORSDOF 9
