REMARK SMILES Cc1ccc(N([O-])[O-])cc1-n1cc([C@@H]([NH2+]Cc2ccc3c(c2)OCO3)C(C)C)nn1
REMARK SMILES IDX 11 1 12 2 13 3 29 4 30 5 10 6 2 7 3 8 4 9 9 10 5 11 1 12
REMARK SMILES IDX 6 13 7 14 8 15 14 16 15 17 16 20 17 21 18 22 22 23 19 24
REMARK SMILES IDX 21 25 20 26 23 27 25 28 24 29 26 30 27 31 28 32
REMARK H PARENT 15 18 15 19
ROOT
ATOM     1   N2  UNL     1      -0.270   0.120   1.404  1.00  0.00    -0.180 N   
ATOM     2   C8  UNL     1      -0.512  -0.356   0.125  1.00  0.00     0.135 A   
ATOM     3   C9  UNL     1       0.725  -0.445  -0.471  1.00  0.00     0.127 A   
ATOM     4   N4  UNL     1       1.679  -0.069   0.429  1.00  0.00    -0.131 NA  
ATOM     5   N5  UNL     1       1.072   0.238   1.562  1.00  0.00    -0.071 NA  
ENDROOT
BRANCH   1   6
ATOM     6   C7  UNL     1      -1.212   0.512   2.404  1.00  0.00     0.063 A   
ATOM     7   C2  UNL     1      -0.835   0.822   3.735  1.00  0.00    -0.027 A   
ATOM     8   C3  UNL     1      -1.827   1.244   4.647  1.00  0.00     0.007 A   
ATOM     9   C4  UNL     1      -3.166   1.355   4.272  1.00  0.00     0.031 A   
ATOM     10  C6  UNL     1      -2.569   0.620   2.034  1.00  0.00     0.057 A   
ATOM     11  C5  UNL     1      -3.530   1.044   2.965  1.00  0.00     0.120 A   
ATOM     12  C1  UNL     1       0.573   0.728   4.270  1.00  0.00     0.046 C   
BRANCH  11  13
ATOM     13  N1  UNL     1      -4.931   1.182   2.547  1.00  0.00     0.092 N   
ATOM     14  O1  UNL     1      -5.182   1.035   1.341  1.00  0.00    -0.138 OA  
ATOM     15  O2  UNL     1      -5.773   1.441   3.416  1.00  0.00    -0.138 OA  
ENDBRANCH  11  13
ENDBRANCH   1   6
BRANCH   3  16
ATOM     16  C10 UNL     1       1.125  -0.739  -1.882  1.00  0.00     0.117 C   
BRANCH  16  17
ATOM     17  N3  UNL     1       2.124   0.308  -2.342  1.00  0.00     0.249 N   
ATOM     18  H9  UNL     1       2.827  -0.114  -2.958  1.00  0.00     0.199 HD  
ATOM     19  H10 UNL     1       2.634   0.608  -1.496  1.00  0.00     0.199 HD  
BRANCH  17  20
ATOM     20  C11 UNL     1       1.566   1.520  -3.015  1.00  0.00     0.164 C   
BRANCH  20  21
ATOM     21  C12 UNL     1       0.521   2.251  -2.219  1.00  0.00    -0.002 A   
ATOM     22  C13 UNL     1       0.875   2.978  -1.056  1.00  0.00     0.012 A   
ATOM     23  C17 UNL     1      -0.831   2.173  -2.596  1.00  0.00     0.045 A   
ATOM     24  C14 UNL     1      -0.104   3.592  -0.265  1.00  0.00     0.037 A   
ATOM     25  C16 UNL     1      -1.769   2.791  -1.796  1.00  0.00     0.109 A   
ATOM     26  C15 UNL     1      -1.418   3.476  -0.659  1.00  0.00     0.108 A   
ATOM     27  O3  UNL     1      -3.111   2.786  -2.006  1.00  0.00    -0.316 OA  
ATOM     28  O4  UNL     1      -2.497   3.983  -0.008  1.00  0.00    -0.316 OA  
ATOM     29  C18 UNL     1      -3.564   3.611  -0.909  1.00  0.00     0.337 C   
ENDBRANCH  20  21
ENDBRANCH  17  20
ENDBRANCH  16  17
BRANCH  16  30
ATOM     30  C19 UNL     1       1.739  -2.147  -2.090  1.00  0.00     0.037 C   
ATOM     31  C20 UNL     1       0.709  -3.249  -1.817  1.00  0.00     0.014 C   
ATOM     32  C21 UNL     1       3.011  -2.416  -1.279  1.00  0.00     0.014 C   
ENDBRANCH  16  30
ENDBRANCH   3  16
TORSDOF 7
