REMARK SMILES CC(C)C[C@H]([NH2+]Cc1ccc2c(c1)OCO2)c1cn(Cc2cc(F)ccc2N(C)C)nn1
REMARK SMILES IDX 17 1 18 2 19 3 31 4 32 5 5 7 4 8 2 9 1 10 3 11 6 12 7 15
REMARK SMILES IDX 8 16 9 17 13 18 10 19 12 20 11 21 14 22 16 23 15 24 20 25
REMARK SMILES IDX 21 26 22 27 27 28 23 29 26 30 25 31 24 32 28 33 29 34 30 35
REMARK H PARENT 18 6 6 13 6 14
ROOT
ATOM     1   C14 UNL     1      -0.079   1.183   0.173  1.00  0.00     0.127 A   
ATOM     2   C15 UNL     1      -0.896   0.212   0.706  1.00  0.00     0.046 A   
ATOM     3   N2  UNL     1      -1.717   0.900   1.557  1.00  0.00    -0.208 N   
ATOM     4   N4  UNL     1      -1.465   2.224   1.498  1.00  0.00    -0.076 NA  
ATOM     5   N5  UNL     1      -0.447   2.407   0.673  1.00  0.00    -0.132 NA  
ATOM     6   H20 UNL     1      -0.960  -0.862   0.592  1.00  0.00     0.083 HD  
ENDROOT
BRANCH   1   7
ATOM     7   C5  UNL     1       1.044   1.095  -0.808  1.00  0.00     0.114 C   
BRANCH   7   8
ATOM     8   C4  UNL     1       2.376   0.803  -0.083  1.00  0.00     0.064 C   
BRANCH   8   9
ATOM     9   C2  UNL     1       3.612   0.583  -0.982  1.00  0.00    -0.012 C   
ATOM     10  C1  UNL     1       3.416  -0.559  -1.981  1.00  0.00     0.007 C   
ATOM     11  C3  UNL     1       4.837   0.297  -0.107  1.00  0.00     0.007 C   
ENDBRANCH   8   9
ENDBRANCH   7   8
BRANCH   7  12
ATOM     12  N1  UNL     1       1.176   2.392  -1.571  1.00  0.00     0.249 N   
ATOM     13  H11 UNL     1       2.072   2.442  -2.059  1.00  0.00     0.199 HD  
ATOM     14  H12 UNL     1       1.170   3.140  -0.863  1.00  0.00     0.199 HD  
BRANCH  12  15
ATOM     15  C6  UNL     1       0.084   2.696  -2.544  1.00  0.00     0.164 C   
BRANCH  15  16
ATOM     16  C7  UNL     1       0.074   1.756  -3.719  1.00  0.00    -0.002 A   
ATOM     17  C8  UNL     1      -0.946   0.782  -3.845  1.00  0.00     0.012 A   
ATOM     18  C12 UNL     1       1.097   1.815  -4.683  1.00  0.00     0.045 A   
ATOM     19  C9  UNL     1      -0.946  -0.127  -4.908  1.00  0.00     0.037 A   
ATOM     20  C11 UNL     1       1.068   0.903  -5.718  1.00  0.00     0.109 A   
ATOM     21  C10 UNL     1       0.077  -0.041  -5.827  1.00  0.00     0.108 A   
ATOM     22  O1  UNL     1       1.980   0.817  -6.721  1.00  0.00    -0.316 OA  
ATOM     23  O2  UNL     1       0.239  -0.839  -6.914  1.00  0.00    -0.316 OA  
ATOM     24  C13 UNL     1       1.432  -0.272  -7.498  1.00  0.00     0.337 C   
ENDBRANCH  15  16
ENDBRANCH  12  15
ENDBRANCH   7  12
ENDBRANCH   1   7
BRANCH   3  25
ATOM     25  C16 UNL     1      -2.776   0.381   2.406  1.00  0.00     0.171 C   
BRANCH  25  26
ATOM     26  C17 UNL     1      -2.211  -0.199   3.680  1.00  0.00    -0.004 A   
ATOM     27  C18 UNL     1      -1.919   0.671   4.748  1.00  0.00     0.046 A   
ATOM     28  C22 UNL     1      -1.929  -1.579   3.808  1.00  0.00     0.033 A   
ATOM     29  C19 UNL     1      -1.371   0.179   5.924  1.00  0.00     0.123 A   
ATOM     30  C21 UNL     1      -1.382  -2.046   5.018  1.00  0.00     0.027 A   
ATOM     31  C20 UNL     1      -1.102  -1.172   6.071  1.00  0.00     0.041 A   
ATOM     32  F1  UNL     1      -1.097   1.021   6.928  1.00  0.00    -0.207 F   
BRANCH  28  33
ATOM     33  N3  UNL     1      -2.232  -2.450   2.732  1.00  0.00    -0.337 N   
ATOM     34  C23 UNL     1      -1.187  -3.446   2.449  1.00  0.00     0.129 C   
ATOM     35  C24 UNL     1      -3.557  -3.064   2.939  1.00  0.00     0.129 C   
ENDBRANCH  28  33
ENDBRANCH  25  26
ENDBRANCH   3  25
TORSDOF 9
