REMARK SMILES Cc1ccc(C)c([C@H](O)Cn2cc([C@@H]([NH2+]Cc3ccc4c(c3)OCO4)C(C)C)nn2)c1
REMARK SMILES IDX 11 1 12 2 13 3 29 4 30 5 10 7 8 8 7 9 2 10 3 11 31 12 4 13
REMARK SMILES IDX 5 14 1 15 6 16 9 17 14 19 15 20 16 23 17 24 18 25 22 26
REMARK SMILES IDX 19 27 21 28 20 29 23 30 25 31 24 32 26 33 27 34 28 35
REMARK H PARENT 12 6 9 18 15 21 15 22
ROOT
ATOM     1   N1  UNL     1       0.722   1.631  -0.516  1.00  0.00    -0.209 N   
ATOM     2   C10 UNL     1       0.428   0.308  -0.694  1.00  0.00     0.045 A   
ATOM     3   C11 UNL     1       0.409  -0.201   0.584  1.00  0.00     0.127 A   
ATOM     4   N3  UNL     1       0.732   0.795   1.471  1.00  0.00    -0.132 NA  
ATOM     5   N4  UNL     1       0.940   1.906   0.783  1.00  0.00    -0.076 NA  
ATOM     6   H13 UNL     1       0.227  -0.115  -1.669  1.00  0.00     0.083 HD  
ENDROOT
BRANCH   1   7
ATOM     7   C9  UNL     1       0.787   2.672  -1.515  1.00  0.00     0.170 C   
BRANCH   7   8
ATOM     8   C8  UNL     1      -0.496   3.509  -1.588  1.00  0.00     0.164 C   
BRANCH   8   9
ATOM     9   C7  UNL     1      -1.725   2.687  -1.954  1.00  0.00    -0.015 A   
ATOM     10  C2  UNL     1      -2.904   1.357  -3.645  1.00  0.00    -0.051 A   
ATOM     11  C3  UNL     1      -3.912   1.092  -2.719  1.00  0.00     0.004 A   
ATOM     12  C24 UNL     1      -1.813   2.141  -3.252  1.00  0.00     0.010 A   
ATOM     13  C4  UNL     1      -3.847   1.629  -1.432  1.00  0.00     0.004 A   
ATOM     14  C5  UNL     1      -2.764   2.429  -1.034  1.00  0.00    -0.045 A   
ATOM     15  C1  UNL     1      -2.966   0.772  -5.026  1.00  0.00     0.044 C   
ATOM     16  C6  UNL     1      -2.767   2.997   0.360  1.00  0.00     0.045 C   
ENDBRANCH   8   9
BRANCH   8  17
ATOM     17  O1  UNL     1      -0.312   4.532  -2.572  1.00  0.00    -0.387 OA  
ATOM     18  H10 UNL     1      -1.194   4.893  -2.781  1.00  0.00     0.211 HD  
ENDBRANCH   8  17
ENDBRANCH   7   8
ENDBRANCH   1   7
BRANCH   3  19
ATOM     19  C12 UNL     1       0.114  -1.577   1.089  1.00  0.00     0.117 C   
BRANCH  19  20
ATOM     20  N2  UNL     1       0.757  -1.791   2.439  1.00  0.00     0.249 N   
ATOM     21  H15 UNL     1       0.557  -0.941   2.986  1.00  0.00     0.199 HD  
ATOM     22  H16 UNL     1       0.328  -2.577   2.933  1.00  0.00     0.199 HD  
BRANCH  20  23
ATOM     23  C13 UNL     1       2.240  -1.967   2.439  1.00  0.00     0.164 C   
BRANCH  23  24
ATOM     24  C14 UNL     1       2.663  -3.297   1.877  1.00  0.00    -0.002 A   
ATOM     25  C15 UNL     1       2.478  -4.485   2.626  1.00  0.00     0.012 A   
ATOM     26  C19 UNL     1       3.219  -3.372   0.588  1.00  0.00     0.045 A   
ATOM     27  C16 UNL     1       2.834  -5.730   2.096  1.00  0.00     0.037 A   
ATOM     28  C18 UNL     1       3.557  -4.615   0.096  1.00  0.00     0.109 A   
ATOM     29  C17 UNL     1       3.369  -5.762   0.828  1.00  0.00     0.108 A   
ATOM     30  O2  UNL     1       4.092  -4.862  -1.128  1.00  0.00    -0.316 OA  
ATOM     31  O3  UNL     1       3.766  -6.875   0.158  1.00  0.00    -0.316 OA  
ATOM     32  C20 UNL     1       4.253  -6.298  -1.073  1.00  0.00     0.337 C   
ENDBRANCH  23  24
ENDBRANCH  20  23
ENDBRANCH  19  20
BRANCH  19  33
ATOM     33  C21 UNL     1      -1.413  -1.849   1.172  1.00  0.00     0.037 C   
ATOM     34  C22 UNL     1      -2.138  -1.022   2.240  1.00  0.00     0.014 C   
ATOM     35  C23 UNL     1      -1.712  -3.339   1.379  1.00  0.00     0.014 C   
ENDBRANCH  19  33
ENDBRANCH   3  19
TORSDOF 9
