REMARK SMILES Cc1ccc(C)c([C@@H](O)Cn2cc([C@@H]([NH2+]Cc3ccc4c(c3)OCO4)C(C)C)nn2)c1
REMARK SMILES IDX 11 1 12 2 13 3 29 4 30 5 10 7 8 8 7 9 2 10 3 11 31 12 4 13
REMARK SMILES IDX 5 14 1 15 6 16 9 17 14 19 15 20 16 23 17 24 18 25 22 26
REMARK SMILES IDX 19 27 21 28 20 29 23 30 25 31 24 32 26 33 27 34 28 35
REMARK H PARENT 12 6 9 18 15 21 15 22
ROOT
ATOM     1   N1  UNL     1      -0.514  -0.185   2.939  1.00  0.00    -0.209 N   
ATOM     2   C10 UNL     1      -1.060   0.815   2.187  1.00  0.00     0.045 A   
ATOM     3   C11 UNL     1      -1.917   0.157   1.337  1.00  0.00     0.127 A   
ATOM     4   N3  UNL     1      -1.879  -1.187   1.609  1.00  0.00    -0.132 NA  
ATOM     5   N4  UNL     1      -1.031  -1.380   2.603  1.00  0.00    -0.076 NA  
ATOM     6   H13 UNL     1      -0.762   1.849   2.291  1.00  0.00     0.083 HD  
ENDROOT
BRANCH   1   7
ATOM     7   C9  UNL     1       0.559  -0.089   3.899  1.00  0.00     0.170 C   
BRANCH   7   8
ATOM     8   C8  UNL     1       1.875  -0.692   3.386  1.00  0.00     0.164 C   
BRANCH   8   9
ATOM     9   C7  UNL     1       2.331  -0.122   2.047  1.00  0.00    -0.015 A   
ATOM     10  C2  UNL     1       3.054   1.838   0.765  1.00  0.00    -0.051 A   
ATOM     11  C3  UNL     1       3.127   1.048  -0.383  1.00  0.00     0.004 A   
ATOM     12  C24 UNL     1       2.648   1.250   1.966  1.00  0.00     0.010 A   
ATOM     13  C4  UNL     1       2.832  -0.314  -0.322  1.00  0.00     0.004 A   
ATOM     14  C5  UNL     1       2.439  -0.916   0.884  1.00  0.00    -0.045 A   
ATOM     15  C1  UNL     1       3.373   3.302   0.702  1.00  0.00     0.044 C   
ATOM     16  C6  UNL     1       2.167  -2.398   0.892  1.00  0.00     0.045 C   
ENDBRANCH   8   9
BRANCH   8  17
ATOM     17  O1  UNL     1       2.896  -0.448   4.360  1.00  0.00    -0.387 OA  
ATOM     18  H10 UNL     1       3.754  -0.613   3.929  1.00  0.00     0.211 HD  
ENDBRANCH   8  17
ENDBRANCH   7   8
ENDBRANCH   1   7
BRANCH   3  19
ATOM     19  C12 UNL     1      -2.721   0.648   0.180  1.00  0.00     0.117 C   
BRANCH  19  20
ATOM     20  N2  UNL     1      -2.597  -0.332  -0.961  1.00  0.00     0.249 N   
ATOM     21  H15 UNL     1      -3.358  -0.223  -1.639  1.00  0.00     0.199 HD  
ATOM     22  H16 UNL     1      -2.705  -1.275  -0.552  1.00  0.00     0.199 HD  
BRANCH  20  23
ATOM     23  C13 UNL     1      -1.287  -0.308  -1.671  1.00  0.00     0.164 C   
BRANCH  23  24
ATOM     24  C14 UNL     1      -1.210  -1.431  -2.664  1.00  0.00    -0.002 A   
ATOM     25  C15 UNL     1      -1.652  -1.245  -3.996  1.00  0.00     0.012 A   
ATOM     26  C19 UNL     1      -0.753  -2.695  -2.254  1.00  0.00     0.045 A   
ATOM     27  C16 UNL     1      -1.634  -2.304  -4.910  1.00  0.00     0.037 A   
ATOM     28  C18 UNL     1      -0.749  -3.716  -3.182  1.00  0.00     0.109 A   
ATOM     29  C17 UNL     1      -1.179  -3.527  -4.472  1.00  0.00     0.108 A   
ATOM     30  O2  UNL     1      -0.342  -4.991  -2.954  1.00  0.00    -0.316 OA  
ATOM     31  O3  UNL     1      -1.100  -4.660  -5.217  1.00  0.00    -0.316 OA  
ATOM     32  C20 UNL     1      -0.566  -5.589  -4.250  1.00  0.00     0.337 C   
ENDBRANCH  23  24
ENDBRANCH  20  23
ENDBRANCH  19  20
BRANCH  19  33
ATOM     33  C21 UNL     1      -4.224   0.868   0.488  1.00  0.00     0.037 C   
ATOM     34  C22 UNL     1      -4.969  -0.394   0.937  1.00  0.00     0.014 C   
ATOM     35  C23 UNL     1      -4.427   1.984   1.520  1.00  0.00     0.014 C   
ENDBRANCH  19  33
ENDBRANCH   3  19
TORSDOF 9
