REMARK SMILES c1cc2c(cc1C[NH2+][C@H](c1cn([C@H]3CCCn4cncc43)nn1)C1CCCCC1)OCO2
REMARK SMILES IDX 8 1 7 4 6 5 1 6 2 7 3 8 5 9 4 10 32 11 30 12 31 13 9 14
REMARK SMILES IDX 10 15 11 16 23 17 12 18 22 19 13 21 14 22 21 23 15 24 17 25
REMARK SMILES IDX 20 26 16 27 18 28 19 29 24 30 25 31 29 32 26 33 28 34 27 35
REMARK H PARENT 8 2 8 3 11 20
ROOT
ATOM     1   N1  UNL     1       0.641  -1.590  -2.078  1.00  0.00     0.249 N   
ATOM     2   H6  UNL     1      -0.158  -2.227  -1.952  1.00  0.00     0.199 HD  
ATOM     3   H7  UNL     1       0.961  -1.686  -3.044  1.00  0.00     0.199 HD  
ENDROOT
BRANCH   1   4
ATOM     4   C7  UNL     1       1.719  -2.076  -1.161  1.00  0.00     0.164 C   
BRANCH   4   5
ATOM     5   C6  UNL     1       2.960  -1.228  -1.192  1.00  0.00    -0.002 A   
ATOM     6   C1  UNL     1       3.848  -1.288  -2.292  1.00  0.00     0.012 A   
ATOM     7   C2  UNL     1       4.982  -0.471  -2.342  1.00  0.00     0.037 A   
ATOM     8   C3  UNL     1       5.204   0.390  -1.290  1.00  0.00     0.108 A   
ATOM     9   C5  UNL     1       3.225  -0.339  -0.134  1.00  0.00     0.045 A   
ATOM     10  C4  UNL     1       4.350   0.454  -0.217  1.00  0.00     0.109 A   
ATOM     11  O2  UNL     1       6.245   1.253  -1.173  1.00  0.00    -0.316 OA  
ATOM     12  O1  UNL     1       4.741   1.369   0.707  1.00  0.00    -0.316 OA  
ATOM     13  C24 UNL     1       5.965   1.855   0.109  1.00  0.00     0.337 C   
ENDBRANCH   4   5
ENDBRANCH   1   4
BRANCH   1  14
ATOM     14  C8  UNL     1       0.118  -0.194  -1.832  1.00  0.00     0.117 C   
BRANCH  14  15
ATOM     15  C9  UNL     1      -0.559  -0.093  -0.503  1.00  0.00     0.127 A   
ATOM     16  C10 UNL     1      -0.715   0.979   0.348  1.00  0.00     0.046 A   
ATOM     17  N6  UNL     1      -1.131  -1.201   0.063  1.00  0.00    -0.132 NA  
ATOM     18  N2  UNL     1      -1.427   0.472   1.403  1.00  0.00    -0.203 N   
ATOM     19  N5  UNL     1      -1.639  -0.851   1.233  1.00  0.00    -0.075 NA  
ATOM     20  H9  UNL     1      -0.420   2.018   0.288  1.00  0.00     0.083 HD  
BRANCH  18  21
ATOM     21  C11 UNL     1      -1.918   1.139   2.614  1.00  0.00     0.146 C   
ATOM     22  C12 UNL     1      -0.918   0.994   3.781  1.00  0.00     0.033 C   
ATOM     23  C17 UNL     1      -2.240   2.575   2.347  1.00  0.00     0.052 A   
ATOM     24  C13 UNL     1       0.193   2.052   3.739  1.00  0.00     0.022 C   
ATOM     25  N3  UNL     1      -1.503   3.610   2.866  1.00  0.00    -0.292 N   
ATOM     26  C16 UNL     1      -3.215   3.191   1.591  1.00  0.00     0.134 A   
ATOM     27  C14 UNL     1      -0.393   3.463   3.785  1.00  0.00     0.112 C   
ATOM     28  C15 UNL     1      -2.022   4.777   2.396  1.00  0.00     0.188 A   
ATOM     29  N4  UNL     1      -3.049   4.551   1.607  1.00  0.00    -0.247 NA  
ENDBRANCH  18  21
ENDBRANCH  14  15
BRANCH  14  30
ATOM     30  C18 UNL     1      -0.817   0.248  -2.994  1.00  0.00     0.043 C   
ATOM     31  C19 UNL     1      -1.996  -0.709  -3.255  1.00  0.00     0.010 C   
ATOM     32  C23 UNL     1      -0.033   0.491  -4.299  1.00  0.00     0.010 C   
ATOM     33  C20 UNL     1      -2.903  -0.190  -4.371  1.00  0.00     0.001 C   
ATOM     34  C22 UNL     1      -0.943   1.009  -5.412  1.00  0.00     0.001 C   
ATOM     35  C21 UNL     1      -2.123   0.074  -5.654  1.00  0.00     0.000 C   
ENDBRANCH  14  30
ENDBRANCH   1  14
TORSDOF 6
