REMARK SMILES COc1ccc(Cn2cc([C@@H]([NH2+]Cc3ccc4c(c3)OCO4)C3CCCC3)nn2)cc1F
REMARK SMILES IDX 8 1 9 2 10 3 28 4 29 5 7 7 6 8 3 9 4 10 31 11 5 12 30 13
REMARK SMILES IDX 32 14 2 15 1 16 11 17 12 18 13 21 14 22 15 23 19 24 16 25
REMARK SMILES IDX 18 26 17 27 20 28 22 29 21 30 23 31 24 32 27 33 25 34 26 35
REMARK H PARENT 9 6 12 19 12 20
ROOT
ATOM     1   N1  UNL     1       0.365  -0.455  -3.365  1.00  0.00    -0.208 N   
ATOM     2   C7  UNL     1      -0.699  -0.548  -2.508  1.00  0.00     0.046 A   
ATOM     3   C8  UNL     1      -0.132  -0.942  -1.316  1.00  0.00     0.127 A   
ATOM     4   N3  UNL     1       1.216  -1.121  -1.498  1.00  0.00    -0.132 NA  
ATOM     5   N4  UNL     1       1.504  -0.841  -2.758  1.00  0.00    -0.076 NA  
ATOM     6   H8  UNL     1      -1.705  -0.290  -2.807  1.00  0.00     0.083 HD  
ENDROOT
BRANCH   1   7
ATOM     7   C6  UNL     1       0.378   0.011  -4.743  1.00  0.00     0.169 C   
BRANCH   7   8
ATOM     8   C5  UNL     1       0.130   1.498  -4.817  1.00  0.00    -0.025 A   
ATOM     9   C2  UNL     1      -0.346   4.284  -4.935  1.00  0.00     0.110 A   
ATOM     10  C3  UNL     1      -1.251   3.388  -5.507  1.00  0.00     0.037 A   
ATOM     11  C24 UNL     1       0.796   3.773  -4.313  1.00  0.00     0.153 A   
ATOM     12  C4  UNL     1      -1.015   2.006  -5.448  1.00  0.00     0.008 A   
ATOM     13  C23 UNL     1       1.042   2.402  -4.256  1.00  0.00     0.047 A   
ATOM     14  F1  UNL     1       1.686   4.602  -3.747  1.00  0.00    -0.204 F   
BRANCH   9  15
ATOM     15  O1  UNL     1      -0.473   5.645  -4.918  1.00  0.00    -0.346 OA  
ATOM     16  C1  UNL     1      -1.567   6.209  -5.630  1.00  0.00     0.203 C   
ENDBRANCH   9  15
ENDBRANCH   7   8
ENDBRANCH   1   7
BRANCH   3  17
ATOM     17  C9  UNL     1      -0.728  -1.166   0.038  1.00  0.00     0.117 C   
BRANCH  17  18
ATOM     18  N2  UNL     1       0.253  -1.885   0.927  1.00  0.00     0.249 N   
ATOM     19  H10 UNL     1       1.186  -1.504   0.704  1.00  0.00     0.199 HD  
ATOM     20  H11 UNL     1       0.099  -1.686   1.921  1.00  0.00     0.199 HD  
BRANCH  18  21
ATOM     21  C10 UNL     1       0.330  -3.357   0.728  1.00  0.00     0.164 C   
BRANCH  21  22
ATOM     22  C11 UNL     1       1.412  -3.943   1.591  1.00  0.00    -0.002 A   
ATOM     23  C12 UNL     1       2.743  -4.009   1.113  1.00  0.00     0.012 A   
ATOM     24  C16 UNL     1       1.122  -4.373   2.897  1.00  0.00     0.045 A   
ATOM     25  C13 UNL     1       3.772  -4.507   1.919  1.00  0.00     0.037 A   
ATOM     26  C15 UNL     1       2.160  -4.858   3.666  1.00  0.00     0.109 A   
ATOM     27  C14 UNL     1       3.447  -4.923   3.192  1.00  0.00     0.108 A   
ATOM     28  O2  UNL     1       2.051  -5.311   4.941  1.00  0.00    -0.316 OA  
ATOM     29  O3  UNL     1       4.311  -5.428   4.110  1.00  0.00    -0.316 OA  
ATOM     30  C17 UNL     1       3.421  -5.688   5.216  1.00  0.00     0.337 C   
ENDBRANCH  21  22
ENDBRANCH  18  21
ENDBRANCH  17  18
BRANCH  17  31
ATOM     31  C18 UNL     1      -1.168   0.159   0.696  1.00  0.00     0.043 C   
ATOM     32  C19 UNL     1      -1.960  -0.015   2.007  1.00  0.00     0.010 C   
ATOM     33  C22 UNL     1      -0.038   1.140   1.038  1.00  0.00     0.010 C   
ATOM     34  C20 UNL     1      -1.391   1.009   2.987  1.00  0.00     0.001 C   
ATOM     35  C21 UNL     1      -0.649   2.013   2.122  1.00  0.00     0.001 C   
ENDBRANCH  17  31
ENDBRANCH   3  17
TORSDOF 8
