REMARK SMILES c1cc2c(cc1C[NH2+][C@H](c1cn(CCc3[nH]nc4c3CCC4)nn1)C1CCCCC1)OCO2
REMARK SMILES IDX 10 1 11 2 12 3 23 4 24 5 9 7 8 8 7 11 6 12 1 13 2 14 3 15
REMARK SMILES IDX 5 16 4 17 33 18 31 19 32 20 25 21 26 22 30 23 27 24 29 25
REMARK SMILES IDX 28 26 13 27 14 28 15 29 16 30 19 31 17 32 18 33 20 34 22 35
REMARK SMILES IDX 21 36
REMARK H PARENT 11 6 8 9 8 10 16 37
ROOT
ATOM     1   C9  UNL     1       0.405   1.828   1.438  1.00  0.00     0.127 A   
ATOM     2   C10 UNL     1      -0.609   2.694   1.093  1.00  0.00     0.045 A   
ATOM     3   N2  UNL     1       0.043   3.854   0.778  1.00  0.00    -0.212 N   
ATOM     4   N5  UNL     1       1.371   3.726   0.963  1.00  0.00    -0.076 NA  
ATOM     5   N6  UNL     1       1.607   2.482   1.350  1.00  0.00    -0.132 NA  
ATOM     6   H9  UNL     1      -1.677   2.580   0.981  1.00  0.00     0.083 HD  
ENDROOT
BRANCH   1   7
ATOM     7   C8  UNL     1       0.383   0.360   1.733  1.00  0.00     0.117 C   
BRANCH   7   8
ATOM     8   N1  UNL     1       1.276  -0.325   0.718  1.00  0.00     0.249 N   
ATOM     9   H6  UNL     1       2.135   0.242   0.661  1.00  0.00     0.199 HD  
ATOM     10  H7  UNL     1       1.559  -1.257   1.020  1.00  0.00     0.199 HD  
BRANCH   8  11
ATOM     11  C7  UNL     1       0.713  -0.428  -0.665  1.00  0.00     0.164 C   
BRANCH  11  12
ATOM     12  C6  UNL     1      -0.340  -1.497  -0.774  1.00  0.00    -0.002 A   
ATOM     13  C1  UNL     1       0.010  -2.866  -0.675  1.00  0.00     0.012 A   
ATOM     14  C2  UNL     1      -0.968  -3.863  -0.741  1.00  0.00     0.037 A   
ATOM     15  C3  UNL     1      -2.277  -3.471  -0.913  1.00  0.00     0.108 A   
ATOM     16  C5  UNL     1      -1.688  -1.139  -0.954  1.00  0.00     0.045 A   
ATOM     17  C4  UNL     1      -2.627  -2.147  -1.017  1.00  0.00     0.109 A   
ATOM     18  O2  UNL     1      -3.351  -4.298  -1.002  1.00  0.00    -0.316 OA  
ATOM     19  O1  UNL     1      -3.964  -1.973  -1.183  1.00  0.00    -0.316 OA  
ATOM     20  C25 UNL     1      -4.418  -3.346  -1.196  1.00  0.00     0.337 C   
ENDBRANCH  11  12
ENDBRANCH   8  11
ENDBRANCH   7   8
BRANCH   7  21
ATOM     21  C19 UNL     1       0.869   0.027   3.174  1.00  0.00     0.043 C   
ATOM     22  C20 UNL     1       0.816  -1.489   3.474  1.00  0.00     0.010 C   
ATOM     23  C24 UNL     1       0.024   0.786   4.224  1.00  0.00     0.010 C   
ATOM     24  C21 UNL     1       1.206  -1.816   4.915  1.00  0.00     0.001 C   
ATOM     25  C23 UNL     1       0.429   0.450   5.658  1.00  0.00     0.001 C   
ATOM     26  C22 UNL     1       0.362  -1.047   5.922  1.00  0.00     0.000 C   
ENDBRANCH   7  21
ENDBRANCH   1   7
BRANCH   3  27
ATOM     27  C11 UNL     1      -0.501   5.024   0.115  1.00  0.00     0.140 C   
BRANCH  27  28
ATOM     28  C12 UNL     1       0.089   5.252  -1.283  1.00  0.00     0.074 C   
BRANCH  28  29
ATOM     29  C13 UNL     1       0.041   4.025  -2.130  1.00  0.00     0.032 A   
ATOM     30  N3  UNL     1       1.127   3.175  -2.247  1.00  0.00    -0.242 N   
ATOM     31  C15 UNL     1      -0.928   3.445  -2.899  1.00  0.00    -0.006 A   
ATOM     32  N4  UNL     1       0.848   2.018  -2.908  1.00  0.00    -0.189 NA  
ATOM     33  C14 UNL     1      -0.374   2.253  -3.364  1.00  0.00     0.063 A   
ATOM     34  C16 UNL     1      -2.314   3.633  -3.365  1.00  0.00     0.039 C   
ATOM     35  C18 UNL     1      -1.299   1.480  -4.213  1.00  0.00     0.058 C   
ATOM     36  C17 UNL     1      -2.656   2.214  -3.936  1.00  0.00     0.011 C   
ATOM     37  H14 UNL     1       2.057   3.299  -1.851  1.00  0.00     0.175 HD  
ENDBRANCH  28  29
ENDBRANCH  27  28
ENDBRANCH   3  27
TORSDOF 8
