REMARK SMILES COc1ccc(CCn2cc([C@H](CC(C)C)[NH2+]Cc3ccc4c(c3)OCO4)nn2)c(C)c1
REMARK SMILES IDX 9 1 10 2 11 3 28 4 29 5 8 7 7 8 6 9 3 10 4 11 32 12 5 13
REMARK SMILES IDX 30 14 31 15 2 16 1 17 12 18 13 19 14 20 15 21 16 22 17 23
REMARK SMILES IDX 18 26 19 27 20 28 24 29 21 30 23 31 22 32 25 33 27 34 26 35
REMARK H PARENT 10 6 17 24 17 25
ROOT
ATOM     1   N1  UNL     1      -1.478  -2.440  -1.550  1.00  0.00    -0.212 N   
ATOM     2   C8  UNL     1      -0.969  -1.581  -0.618  1.00  0.00     0.045 A   
ATOM     3   C9  UNL     1       0.384  -1.832  -0.639  1.00  0.00     0.127 A   
ATOM     4   N3  UNL     1       0.635  -2.869  -1.499  1.00  0.00    -0.132 NA  
ATOM     5   N4  UNL     1      -0.515  -3.241  -2.040  1.00  0.00    -0.076 NA  
ATOM     6   H10 UNL     1      -1.585  -0.866  -0.090  1.00  0.00     0.083 HD  
ENDROOT
BRANCH   1   7
ATOM     7   C7  UNL     1      -2.850  -2.562  -1.998  1.00  0.00     0.139 C   
BRANCH   7   8
ATOM     8   C6  UNL     1      -3.189  -1.639  -3.174  1.00  0.00     0.057 C   
BRANCH   8   9
ATOM     9   C5  UNL     1      -3.043  -0.168  -2.836  1.00  0.00    -0.043 A   
ATOM     10  C2  UNL     1      -2.780   2.518  -2.008  1.00  0.00     0.075 A   
ATOM     11  C3  UNL     1      -3.822   1.738  -1.519  1.00  0.00     0.034 A   
ATOM     12  C25 UNL     1      -1.888   1.963  -2.927  1.00  0.00     0.037 A   
ATOM     13  C4  UNL     1      -3.954   0.409  -1.933  1.00  0.00     0.007 A   
ATOM     14  C23 UNL     1      -2.005   0.629  -3.357  1.00  0.00    -0.045 A   
ATOM     15  C24 UNL     1      -1.014   0.108  -4.364  1.00  0.00     0.045 C   
BRANCH  10  16
ATOM     16  O1  UNL     1      -2.516   3.815  -1.667  1.00  0.00    -0.349 OA  
ATOM     17  C1  UNL     1      -3.483   4.480  -0.863  1.00  0.00     0.203 C   
ENDBRANCH  10  16
ENDBRANCH   8   9
ENDBRANCH   7   8
ENDBRANCH   1   7
BRANCH   3  18
ATOM     18  C10 UNL     1       1.506  -1.200   0.112  1.00  0.00     0.114 C   
BRANCH  18  19
ATOM     19  C11 UNL     1       2.326  -0.232  -0.766  1.00  0.00     0.064 C   
BRANCH  19  20
ATOM     20  C12 UNL     1       1.539   0.977  -1.315  1.00  0.00    -0.012 C   
ATOM     21  C13 UNL     1       1.001   1.878  -0.203  1.00  0.00     0.007 C   
ATOM     22  C14 UNL     1       2.424   1.791  -2.261  1.00  0.00     0.007 C   
ENDBRANCH  19  20
ENDBRANCH  18  19
BRANCH  18  23
ATOM     23  N2  UNL     1       2.472  -2.258   0.608  1.00  0.00     0.249 N   
ATOM     24  H21 UNL     1       3.311  -1.809   0.983  1.00  0.00     0.199 HD  
ATOM     25  H22 UNL     1       2.755  -2.799  -0.221  1.00  0.00     0.199 HD  
BRANCH  23  26
ATOM     26  C15 UNL     1       1.941  -3.224   1.614  1.00  0.00     0.164 C   
BRANCH  26  27
ATOM     27  C16 UNL     1       1.555  -2.569   2.911  1.00  0.00    -0.002 A   
ATOM     28  C17 UNL     1       0.190  -2.370   3.230  1.00  0.00     0.012 A   
ATOM     29  C21 UNL     1       2.544  -2.119   3.802  1.00  0.00     0.045 A   
ATOM     30  C18 UNL     1      -0.188  -1.725   4.413  1.00  0.00     0.037 A   
ATOM     31  C20 UNL     1       2.138  -1.492   4.962  1.00  0.00     0.109 A   
ATOM     32  C19 UNL     1       0.811  -1.298   5.257  1.00  0.00     0.108 A   
ATOM     33  O2  UNL     1       2.961  -0.999   5.924  1.00  0.00    -0.316 OA  
ATOM     34  O3  UNL     1       0.632  -0.658   6.442  1.00  0.00    -0.316 OA  
ATOM     35  C22 UNL     1       1.998  -0.507   6.884  1.00  0.00     0.337 C   
ENDBRANCH  26  27
ENDBRANCH  23  26
ENDBRANCH  18  23
ENDBRANCH   3  18
TORSDOF 10
