REMARK SMILES Cc1nc(Cl)ccc1Cn1cc([C@@H]([NH2+]Cc2ccc3c(c2)OCO3)C(C)(C)C)nn1
REMARK SMILES IDX 10 1 11 2 12 3 29 4 30 5 9 7 8 8 2 9 3 10 4 11 7 12 6 13
REMARK SMILES IDX 1 14 5 15 13 16 14 17 15 20 16 21 17 22 21 23 18 24 20 25
REMARK SMILES IDX 19 26 22 27 24 28 23 29 25 30 26 31 27 32 28 33
REMARK H PARENT 11 6 14 18 14 19
ROOT
ATOM     1   N2  UNL     1      -1.898   0.093  -1.728  1.00  0.00    -0.208 N   
ATOM     2   C8  UNL     1      -0.538  -0.029  -1.654  1.00  0.00     0.046 A   
ATOM     3   C9  UNL     1      -0.346  -1.221  -0.988  1.00  0.00     0.127 A   
ATOM     4   N4  UNL     1      -1.568  -1.768  -0.685  1.00  0.00    -0.132 NA  
ATOM     5   N5  UNL     1      -2.507  -0.963  -1.153  1.00  0.00    -0.076 NA  
ATOM     6   H8  UNL     1       0.139   0.713  -2.052  1.00  0.00     0.083 HD  
ENDROOT
BRANCH   1   7
ATOM     7   C7  UNL     1      -2.677   1.142  -2.366  1.00  0.00     0.171 C   
BRANCH   7   8
ATOM     8   C6  UNL     1      -3.031   2.237  -1.393  1.00  0.00    -0.007 A   
ATOM     9   C2  UNL     1      -2.349   3.460  -1.333  1.00  0.00     0.044 A   
ATOM     10  N1  UNL     1      -2.675   4.433  -0.449  1.00  0.00    -0.241 NA  
ATOM     11  C3  UNL     1      -3.705   4.201   0.390  1.00  0.00     0.129 A   
ATOM     12  C5  UNL     1      -4.090   2.037  -0.490  1.00  0.00     0.010 A   
ATOM     13  C4  UNL     1      -4.437   3.033   0.415  1.00  0.00     0.041 A   
ATOM     14  C1  UNL     1      -1.215   3.801  -2.256  1.00  0.00     0.067 C   
ATOM     15  CL1 UNL     1      -4.049   5.487   1.470  1.00  0.00    -0.062 Cl  
ENDBRANCH   7   8
ENDBRANCH   1   7
BRANCH   3  16
ATOM     16  C10 UNL     1       0.899  -1.909  -0.515  1.00  0.00     0.120 C   
BRANCH  16  17
ATOM     17  N3  UNL     1       0.605  -2.547   0.831  1.00  0.00     0.250 N   
ATOM     18  H10 UNL     1       0.980  -3.497   0.890  1.00  0.00     0.199 HD  
ATOM     19  H11 UNL     1      -0.422  -2.661   0.868  1.00  0.00     0.199 HD  
BRANCH  17  20
ATOM     20  C11 UNL     1       1.031  -1.781   2.035  1.00  0.00     0.164 C   
BRANCH  20  21
ATOM     21  C12 UNL     1       0.328  -0.463   2.200  1.00  0.00    -0.002 A   
ATOM     22  C13 UNL     1      -1.029  -0.422   2.599  1.00  0.00     0.012 A   
ATOM     23  C17 UNL     1       1.008   0.740   1.939  1.00  0.00     0.045 A   
ATOM     24  C14 UNL     1      -1.699   0.797   2.746  1.00  0.00     0.037 A   
ATOM     25  C16 UNL     1       0.317   1.924   2.091  1.00  0.00     0.109 A   
ATOM     26  C15 UNL     1      -0.996   1.952   2.489  1.00  0.00     0.108 A   
ATOM     27  O1  UNL     1       0.824   3.167   1.881  1.00  0.00    -0.316 OA  
ATOM     28  O2  UNL     1      -1.477   3.216   2.598  1.00  0.00    -0.316 OA  
ATOM     29  C18 UNL     1      -0.315   3.990   2.229  1.00  0.00     0.337 C   
ENDBRANCH  20  21
ENDBRANCH  17  20
ENDBRANCH  16  17
BRANCH  16  30
ATOM     30  C19 UNL     1       1.468  -2.974  -1.516  1.00  0.00     0.010 C   
ATOM     31  C20 UNL     1       2.811  -3.532  -0.990  1.00  0.00     0.017 C   
ATOM     32  C21 UNL     1       0.503  -4.154  -1.748  1.00  0.00     0.017 C   
ATOM     33  C22 UNL     1       1.761  -2.315  -2.884  1.00  0.00     0.017 C   
ENDBRANCH  16  30
ENDBRANCH   3  16
TORSDOF 7
