REMARK SMILES Cc1ccc(-n2cc([C@H](CC(C)C)[NH2+]Cc3ccc4c(c3)OCO4)nn2)cn1
REMARK SMILES IDX 9 1 8 2 6 3 7 4 26 5 25 6 5 7 2 8 3 9 28 10 4 11 27 12 1 13
REMARK SMILES IDX 10 14 11 15 12 16 13 17 14 18 15 21 16 22 17 23 21 24 18 25
REMARK SMILES IDX 20 26 19 27 22 28 24 29 23 30
REMARK H PARENT 14 19 14 20
ROOT
ATOM     1   C8  UNL     1       1.524  -0.585   0.376  1.00  0.00     0.114 C   
ENDROOT
BRANCH   1   2
ATOM     2   C7  UNL     1       0.696   0.623   0.689  1.00  0.00     0.127 A   
ATOM     3   N1  UNL     1      -0.844   2.128   1.098  1.00  0.00    -0.179 N   
ATOM     4   C6  UNL     1      -0.665   0.783   0.838  1.00  0.00     0.135 A   
ATOM     5   N4  UNL     1       0.368   2.742   1.063  1.00  0.00    -0.071 NA  
ATOM     6   N3  UNL     1       1.304   1.838   0.823  1.00  0.00    -0.131 NA  
BRANCH   3   7
ATOM     7   C5  UNL     1      -2.034   2.840   1.351  1.00  0.00     0.076 A   
ATOM     8   C2  UNL     1      -4.393   4.175   1.837  1.00  0.00     0.037 A   
ATOM     9   C3  UNL     1      -3.201   4.892   1.835  1.00  0.00     0.025 A   
ATOM     10  N5  UNL     1      -4.435   2.841   1.609  1.00  0.00    -0.260 NA  
ATOM     11  C4  UNL     1      -2.006   4.216   1.588  1.00  0.00     0.029 A   
ATOM     12  C21 UNL     1      -3.266   2.203   1.374  1.00  0.00     0.137 A   
ATOM     13  C1  UNL     1      -5.693   4.873   2.103  1.00  0.00     0.067 C   
ENDBRANCH   3   7
ENDBRANCH   1   2
BRANCH   1  14
ATOM     14  C9  UNL     1       2.086  -1.256   1.643  1.00  0.00     0.064 C   
BRANCH  14  15
ATOM     15  C10 UNL     1       1.025  -1.844   2.599  1.00  0.00    -0.012 C   
ATOM     16  C11 UNL     1       0.185  -2.936   1.935  1.00  0.00     0.007 C   
ATOM     17  C12 UNL     1       1.712  -2.410   3.846  1.00  0.00     0.007 C   
ENDBRANCH  14  15
ENDBRANCH   1  14
BRANCH   1  18
ATOM     18  N2  UNL     1       2.677  -0.137  -0.500  1.00  0.00     0.249 N   
ATOM     19  H17 UNL     1       2.275   0.458  -1.236  1.00  0.00     0.199 HD  
ATOM     20  H18 UNL     1       3.252   0.514   0.053  1.00  0.00     0.199 HD  
BRANCH  18  21
ATOM     21  C13 UNL     1       3.533  -1.166  -1.147  1.00  0.00     0.164 C   
BRANCH  21  22
ATOM     22  C14 UNL     1       2.763  -2.107  -2.030  1.00  0.00    -0.002 A   
ATOM     23  C15 UNL     1       2.543  -3.446  -1.627  1.00  0.00     0.012 A   
ATOM     24  C19 UNL     1       2.223  -1.653  -3.246  1.00  0.00     0.045 A   
ATOM     25  C16 UNL     1       1.790  -4.321  -2.419  1.00  0.00     0.037 A   
ATOM     26  C18 UNL     1       1.485  -2.541  -4.001  1.00  0.00     0.109 A   
ATOM     27  C17 UNL     1       1.273  -3.837  -3.600  1.00  0.00     0.108 A   
ATOM     28  O1  UNL     1       0.890  -2.262  -5.191  1.00  0.00    -0.316 OA  
ATOM     29  O2  UNL     1       0.520  -4.537  -4.486  1.00  0.00    -0.316 OA  
ATOM     30  C20 UNL     1       0.305  -3.545  -5.512  1.00  0.00     0.337 C   
ENDBRANCH  21  22
ENDBRANCH  18  21
ENDBRANCH   1  18
TORSDOF 7
