REMARK SMILES CC(C)[C@H]([NH2+]Cc1ccc2c(c1)OCO2)c1cn(CCc2ccnn2C(C)C)nn1
REMARK SMILES IDX 16 1 17 2 18 3 29 4 30 5 4 7 2 8 1 9 3 10 5 11 6 14 7 15
REMARK SMILES IDX 8 16 12 17 9 18 11 19 10 20 13 21 15 22 14 23 19 24 20 25
REMARK SMILES IDX 21 26 22 27 25 28 23 29 24 30 26 31 27 32 28 33
REMARK H PARENT 17 6 5 12 5 13
ROOT
ATOM     1   C13 UNL     1      -1.699   0.531   0.336  1.00  0.00     0.127 A   
ATOM     2   C14 UNL     1      -2.366  -0.513  -0.265  1.00  0.00     0.045 A   
ATOM     3   N2  UNL     1      -2.616  -0.049  -1.530  1.00  0.00    -0.212 N   
ATOM     4   N5  UNL     1      -2.306   1.257  -1.633  1.00  0.00    -0.076 NA  
ATOM     5   N6  UNL     1      -1.715   1.616  -0.503  1.00  0.00    -0.132 NA  
ATOM     6   H18 UNL     1      -2.528  -1.546   0.015  1.00  0.00     0.083 HD  
ENDROOT
BRANCH   1   7
ATOM     7   C4  UNL     1      -0.898   0.567   1.607  1.00  0.00     0.117 C   
BRANCH   7   8
ATOM     8   C2  UNL     1      -1.516   1.588   2.606  1.00  0.00     0.037 C   
ATOM     9   C1  UNL     1      -1.057   3.039   2.428  1.00  0.00     0.014 C   
ATOM     10  C3  UNL     1      -1.360   1.162   4.069  1.00  0.00     0.014 C   
ENDBRANCH   7   8
BRANCH   7  11
ATOM     11  N1  UNL     1       0.530   0.857   1.234  1.00  0.00     0.249 N   
ATOM     12  H9  UNL     1       0.545   1.787   0.801  1.00  0.00     0.199 HD  
ATOM     13  H10 UNL     1       0.781   0.235   0.432  1.00  0.00     0.199 HD  
BRANCH  11  14
ATOM     14  C5  UNL     1       1.623   0.743   2.226  1.00  0.00     0.164 C   
BRANCH  14  15
ATOM     15  C6  UNL     1       2.061  -0.668   2.507  1.00  0.00    -0.002 A   
ATOM     16  C7  UNL     1       1.410  -1.459   3.482  1.00  0.00     0.012 A   
ATOM     17  C11 UNL     1       3.137  -1.217   1.787  1.00  0.00     0.045 A   
ATOM     18  C8  UNL     1       1.814  -2.776   3.731  1.00  0.00     0.037 A   
ATOM     19  C10 UNL     1       3.516  -2.515   2.059  1.00  0.00     0.109 A   
ATOM     20  C9  UNL     1       2.871  -3.274   3.002  1.00  0.00     0.108 A   
ATOM     21  O1  UNL     1       4.525  -3.191   1.451  1.00  0.00    -0.316 OA  
ATOM     22  O2  UNL     1       3.395  -4.523   3.110  1.00  0.00    -0.316 OA  
ATOM     23  C12 UNL     1       4.465  -4.457   2.142  1.00  0.00     0.337 C   
ENDBRANCH  14  15
ENDBRANCH  11  14
ENDBRANCH   7  11
ENDBRANCH   1   7
BRANCH   3  24
ATOM     24  C15 UNL     1      -2.779  -0.859  -2.724  1.00  0.00     0.140 C   
BRANCH  24  25
ATOM     25  C16 UNL     1      -1.472  -0.999  -3.534  1.00  0.00     0.074 C   
BRANCH  25  26
ATOM     26  C17 UNL     1      -0.282  -1.233  -2.648  1.00  0.00     0.032 A   
ATOM     27  C18 UNL     1       0.124  -2.372  -1.983  1.00  0.00     0.043 A   
ATOM     28  N4  UNL     1       0.632  -0.260  -2.288  1.00  0.00    -0.227 N   
ATOM     29  C19 UNL     1       1.138  -1.939  -1.113  1.00  0.00     0.133 A   
ATOM     30  N3  UNL     1       1.330  -0.614  -1.172  1.00  0.00    -0.190 NA  
BRANCH  28  31
ATOM     31  C20 UNL     1       0.930   0.991  -2.992  1.00  0.00     0.092 C   
ATOM     32  C21 UNL     1       1.857   0.709  -4.176  1.00  0.00     0.030 C   
ATOM     33  C22 UNL     1       1.533   2.079  -2.099  1.00  0.00     0.030 C   
ENDBRANCH  28  31
ENDBRANCH  25  26
ENDBRANCH  24  25
ENDBRANCH   3  24
TORSDOF 9
