REMARK SMILES CC(C)C[C@H]([NH2+]Cc1ccc2c(c1)OCO2)c1cn(Cc2ccc(CO)cc2)nn1
REMARK SMILES IDX 17 1 18 2 19 3 29 4 30 5 5 7 4 8 2 9 1 10 3 11 6 12 7 15
REMARK SMILES IDX 8 16 9 17 13 18 10 19 12 20 11 21 14 22 16 23 15 24 20 25
REMARK SMILES IDX 21 26 22 27 28 28 23 29 27 30 24 31 25 32 26 33
REMARK H PARENT 18 6 6 13 6 14 26 34
ROOT
ATOM     1   C14 UNL     1       0.792   0.223  -1.468  1.00  0.00     0.127 A   
ATOM     2   C15 UNL     1      -0.395   0.922  -1.485  1.00  0.00     0.046 A   
ATOM     3   N2  UNL     1      -0.307   1.693  -2.614  1.00  0.00    -0.208 N   
ATOM     4   N3  UNL     1       0.828   1.423  -3.291  1.00  0.00    -0.076 NA  
ATOM     5   N4  UNL     1       1.518   0.540  -2.588  1.00  0.00    -0.132 NA  
ATOM     6   H20 UNL     1      -1.240   0.976  -0.811  1.00  0.00     0.083 HD  
ENDROOT
BRANCH   1   7
ATOM     7   C5  UNL     1       1.347  -0.759  -0.486  1.00  0.00     0.114 C   
BRANCH   7   8
ATOM     8   C4  UNL     1       2.083  -0.032   0.657  1.00  0.00     0.064 C   
BRANCH   8   9
ATOM     9   C2  UNL     1       2.586  -0.918   1.817  1.00  0.00    -0.012 C   
ATOM     10  C1  UNL     1       3.318  -0.049   2.844  1.00  0.00     0.007 C   
ATOM     11  C3  UNL     1       1.453  -1.679   2.505  1.00  0.00     0.007 C   
ENDBRANCH   8   9
ENDBRANCH   7   8
BRANCH   7  12
ATOM     12  N1  UNL     1       2.318  -1.680  -1.186  1.00  0.00     0.249 N   
ATOM     13  H11 UNL     1       2.976  -2.100  -0.526  1.00  0.00     0.199 HD  
ATOM     14  H12 UNL     1       2.869  -1.080  -1.818  1.00  0.00     0.199 HD  
BRANCH  12  15
ATOM     15  C6  UNL     1       1.707  -2.761  -2.015  1.00  0.00     0.164 C   
BRANCH  15  16
ATOM     16  C7  UNL     1       1.083  -3.842  -1.176  1.00  0.00    -0.002 A   
ATOM     17  C8  UNL     1      -0.324  -3.992  -1.129  1.00  0.00     0.012 A   
ATOM     18  C12 UNL     1       1.893  -4.691  -0.402  1.00  0.00     0.045 A   
ATOM     19  C9  UNL     1      -0.918  -4.963  -0.315  1.00  0.00     0.037 A   
ATOM     20  C11 UNL     1       1.274  -5.632   0.394  1.00  0.00     0.109 A   
ATOM     21  C10 UNL     1      -0.091  -5.765   0.437  1.00  0.00     0.108 A   
ATOM     22  O1  UNL     1       1.908  -6.508   1.214  1.00  0.00    -0.316 OA  
ATOM     23  O2  UNL     1      -0.489  -6.746   1.287  1.00  0.00    -0.316 OA  
ATOM     24  C13 UNL     1       0.783  -7.231   1.765  1.00  0.00     0.337 C   
ENDBRANCH  15  16
ENDBRANCH  12  15
ENDBRANCH   7  12
ENDBRANCH   1   7
BRANCH   3  25
ATOM     25  C16 UNL     1      -1.256   2.674  -3.116  1.00  0.00     0.169 C   
BRANCH  25  26
ATOM     26  C17 UNL     1      -1.433   3.810  -2.143  1.00  0.00    -0.029 A   
ATOM     27  C18 UNL     1      -2.611   3.931  -1.395  1.00  0.00     0.006 A   
ATOM     28  C23 UNL     1      -0.415   4.756  -1.959  1.00  0.00     0.006 A   
ATOM     29  C19 UNL     1      -2.767   4.977  -0.482  1.00  0.00     0.006 A   
ATOM     30  C22 UNL     1      -0.576   5.803  -1.046  1.00  0.00     0.006 A   
ATOM     31  C20 UNL     1      -1.752   5.924  -0.293  1.00  0.00    -0.023 A   
BRANCH  31  32
ATOM     32  C21 UNL     1      -1.903   7.087   0.659  1.00  0.00     0.191 C   
BRANCH  32  33
ATOM     33  O3  UNL     1      -3.050   6.945   1.487  1.00  0.00    -0.392 OA  
ATOM     34  H27 UNL     1      -3.078   7.732   2.056  1.00  0.00     0.211 HD  
ENDBRANCH  32  33
ENDBRANCH  31  32
ENDBRANCH  25  26
ENDBRANCH   3  25
TORSDOF 10
