REMARK SMILES COc1ccc(Cn2cc([C@@H]([NH2+]Cc3ccc4c(c3)OCO4)C3CCCCC3)nn2)cc1
REMARK SMILES IDX 8 1 9 2 10 3 29 4 30 5 7 7 6 8 3 9 4 10 32 11 5 12 31 13
REMARK SMILES IDX 2 14 1 15 11 16 12 17 13 20 14 21 15 22 19 23 16 24 18 25
REMARK SMILES IDX 17 26 20 27 22 28 21 29 23 30 24 31 28 32 25 33 27 34 26 35
REMARK H PARENT 9 6 12 18 12 19
ROOT
ATOM     1   N1  UNL     1      -1.605   1.645  -1.591  1.00  0.00    -0.208 N   
ATOM     2   C7  UNL     1      -0.572   1.175  -0.825  1.00  0.00     0.046 A   
ATOM     3   C8  UNL     1      -0.139   0.050  -1.490  1.00  0.00     0.127 A   
ATOM     4   N3  UNL     1      -0.918  -0.142  -2.601  1.00  0.00    -0.132 NA  
ATOM     5   N4  UNL     1      -1.819   0.825  -2.643  1.00  0.00    -0.076 NA  
ATOM     6   H8  UNL     1      -0.240   1.672   0.076  1.00  0.00     0.083 HD  
ENDROOT
BRANCH   1   7
ATOM     7   C6  UNL     1      -2.408   2.854  -1.458  1.00  0.00     0.169 C   
BRANCH   7   8
ATOM     8   C5  UNL     1      -2.338   3.478  -0.088  1.00  0.00    -0.028 A   
ATOM     9   C2  UNL     1      -2.185   4.620   2.483  1.00  0.00     0.075 A   
ATOM     10  C3  UNL     1      -1.325   5.040   1.467  1.00  0.00     0.034 A   
ATOM     11  C25 UNL     1      -3.118   3.619   2.215  1.00  0.00     0.034 A   
ATOM     12  C4  UNL     1      -1.401   4.482   0.189  1.00  0.00     0.008 A   
ATOM     13  C24 UNL     1      -3.193   3.050   0.939  1.00  0.00     0.008 A   
BRANCH   9  14
ATOM     14  O1  UNL     1      -2.003   5.246   3.683  1.00  0.00    -0.349 OA  
ATOM     15  C1  UNL     1      -3.038   5.094   4.648  1.00  0.00     0.203 C   
ENDBRANCH   9  14
ENDBRANCH   7   8
ENDBRANCH   1   7
BRANCH   3  16
ATOM     16  C9  UNL     1       0.945  -0.929  -1.171  1.00  0.00     0.117 C   
BRANCH  16  17
ATOM     17  N2  UNL     1       0.574  -2.305  -1.687  1.00  0.00     0.249 N   
ATOM     18  H10 UNL     1       1.398  -2.913  -1.704  1.00  0.00     0.199 HD  
ATOM     19  H11 UNL     1       0.268  -2.173  -2.662  1.00  0.00     0.199 HD  
BRANCH  17  20
ATOM     20  C10 UNL     1      -0.540  -3.001  -0.978  1.00  0.00     0.164 C   
BRANCH  20  21
ATOM     21  C11 UNL     1      -0.203  -3.361   0.442  1.00  0.00    -0.002 A   
ATOM     22  C12 UNL     1      -0.827  -2.680   1.515  1.00  0.00     0.012 A   
ATOM     23  C16 UNL     1       0.746  -4.361   0.717  1.00  0.00     0.045 A   
ATOM     24  C13 UNL     1      -0.511  -2.986   2.843  1.00  0.00     0.037 A   
ATOM     25  C15 UNL     1       1.033  -4.640   2.037  1.00  0.00     0.109 A   
ATOM     26  C14 UNL     1       0.423  -3.972   3.070  1.00  0.00     0.108 A   
ATOM     27  O2  UNL     1       1.919  -5.573   2.473  1.00  0.00    -0.316 OA  
ATOM     28  O3  UNL     1       0.846  -4.403   4.286  1.00  0.00    -0.316 OA  
ATOM     29  C17 UNL     1       1.769  -5.446   3.905  1.00  0.00     0.337 C   
ENDBRANCH  20  21
ENDBRANCH  17  20
ENDBRANCH  16  17
BRANCH  16  30
ATOM     30  C18 UNL     1       2.336  -0.554  -1.753  1.00  0.00     0.043 C   
ATOM     31  C19 UNL     1       2.900   0.724  -1.101  1.00  0.00     0.010 C   
ATOM     32  C23 UNL     1       2.369  -0.425  -3.289  1.00  0.00     0.010 C   
ATOM     33  C20 UNL     1       4.302   1.047  -1.611  1.00  0.00     0.001 C   
ATOM     34  C22 UNL     1       3.772  -0.090  -3.797  1.00  0.00     0.001 C   
ATOM     35  C21 UNL     1       4.332   1.162  -3.132  1.00  0.00     0.000 C   
ENDBRANCH  16  30
ENDBRANCH   3  16
TORSDOF 8
