REMARK SMILES Cc1ccc([C@@H](O)Cn2cc([C@@H]([NH2+]Cc3ccc4c(c3)OCO4)C(C)C)nn2)cc1F
REMARK SMILES IDX 9 1 10 2 11 3 27 4 28 5 8 7 6 8 5 9 2 10 3 11 30 12 4 13
REMARK SMILES IDX 29 14 1 15 31 16 7 17 12 19 13 20 14 23 15 24 16 25 20 26
REMARK SMILES IDX 17 27 19 28 18 29 21 30 23 31 22 32 24 33 25 34 26 35
REMARK H PARENT 10 6 7 18 13 21 13 22
ROOT
ATOM     1   N1  UNL     1       3.165   0.065   2.184  1.00  0.00    -0.209 N   
ATOM     2   C8  UNL     1       1.868   0.184   2.603  1.00  0.00     0.045 A   
ATOM     3   C9  UNL     1       1.245  -0.926   2.078  1.00  0.00     0.127 A   
ATOM     4   N3  UNL     1       2.169  -1.676   1.392  1.00  0.00    -0.132 NA  
ATOM     5   N4  UNL     1       3.337  -1.060   1.465  1.00  0.00    -0.076 NA  
ATOM     6   H10 UNL     1       1.519   1.037   3.171  1.00  0.00     0.083 HD  
ENDROOT
BRANCH   1   7
ATOM     7   C7  UNL     1       4.230   1.037   2.297  1.00  0.00     0.170 C   
BRANCH   7   8
ATOM     8   C6  UNL     1       4.535   1.741   0.967  1.00  0.00     0.164 C   
BRANCH   8   9
ATOM     9   C5  UNL     1       3.320   2.450   0.392  1.00  0.00    -0.015 A   
ATOM     10  C2  UNL     1       0.958   3.660  -0.584  1.00  0.00    -0.015 A   
ATOM     11  C3  UNL     1       1.752   4.316   0.363  1.00  0.00     0.007 A   
ATOM     12  C23 UNL     1       1.368   2.408  -1.044  1.00  0.00     0.126 A   
ATOM     13  C4  UNL     1       2.914   3.710   0.857  1.00  0.00     0.007 A   
ATOM     14  C22 UNL     1       2.537   1.810  -0.580  1.00  0.00     0.046 A   
ATOM     15  C1  UNL     1      -0.277   4.306  -1.135  1.00  0.00     0.047 C   
ATOM     16  F1  UNL     1       0.617   1.743  -1.937  1.00  0.00    -0.207 F   
ENDBRANCH   8   9
BRANCH   8  17
ATOM     17  O1  UNL     1       5.587   2.686   1.176  1.00  0.00    -0.387 OA  
ATOM     18  H7  UNL     1       5.683   3.203   0.354  1.00  0.00     0.211 HD  
ENDBRANCH   8  17
ENDBRANCH   7   8
ENDBRANCH   1   7
BRANCH   3  19
ATOM     19  C10 UNL     1      -0.192  -1.333   2.064  1.00  0.00     0.117 C   
BRANCH  19  20
ATOM     20  N2  UNL     1      -0.544  -1.959   0.736  1.00  0.00     0.249 N   
ATOM     21  H12 UNL     1       0.164  -2.683   0.545  1.00  0.00     0.199 HD  
ATOM     22  H13 UNL     1      -1.450  -2.438   0.781  1.00  0.00     0.199 HD  
BRANCH  20  23
ATOM     23  C11 UNL     1      -0.542  -1.029  -0.431  1.00  0.00     0.164 C   
BRANCH  23  24
ATOM     24  C12 UNL     1      -1.015  -1.737  -1.670  1.00  0.00    -0.002 A   
ATOM     25  C13 UNL     1      -2.329  -1.528  -2.157  1.00  0.00     0.012 A   
ATOM     26  C17 UNL     1      -0.165  -2.642  -2.331  1.00  0.00     0.045 A   
ATOM     27  C14 UNL     1      -2.794  -2.212  -3.286  1.00  0.00     0.037 A   
ATOM     28  C16 UNL     1      -0.655  -3.301  -3.439  1.00  0.00     0.109 A   
ATOM     29  C15 UNL     1      -1.933  -3.094  -3.902  1.00  0.00     0.108 A   
ATOM     30  O2  UNL     1       0.027  -4.210  -4.185  1.00  0.00    -0.316 OA  
ATOM     31  O3  UNL     1      -2.216  -3.845  -4.998  1.00  0.00    -0.316 OA  
ATOM     32  C18 UNL     1      -0.961  -4.539  -5.188  1.00  0.00     0.337 C   
ENDBRANCH  23  24
ENDBRANCH  20  23
ENDBRANCH  19  20
BRANCH  19  33
ATOM     33  C19 UNL     1      -0.588  -2.319   3.194  1.00  0.00     0.037 C   
ATOM     34  C20 UNL     1      -0.484  -1.660   4.575  1.00  0.00     0.014 C   
ATOM     35  C21 UNL     1       0.200  -3.635   3.187  1.00  0.00     0.014 C   
ENDBRANCH  19  33
ENDBRANCH   3  19
TORSDOF 9
