REMARK SMILES Cc1ccc([C@H](O)Cn2cc([C@@H]([NH2+]Cc3ccc4c(c3)OCO4)C(C)C)nn2)cc1F
REMARK SMILES IDX 9 1 10 2 11 3 27 4 28 5 8 7 6 8 5 9 2 10 3 11 30 12 4 13
REMARK SMILES IDX 29 14 1 15 31 16 7 17 12 19 13 20 14 23 15 24 16 25 20 26
REMARK SMILES IDX 17 27 19 28 18 29 21 30 23 31 22 32 24 33 25 34 26 35
REMARK H PARENT 10 6 7 18 13 21 13 22
ROOT
ATOM     1   N1  UNL     1      -2.855  -0.242   0.387  1.00  0.00    -0.209 N   
ATOM     2   C8  UNL     1      -2.208  -0.131  -0.812  1.00  0.00     0.045 A   
ATOM     3   C9  UNL     1      -1.045   0.542  -0.502  1.00  0.00     0.127 A   
ATOM     4   N3  UNL     1      -1.047   0.842   0.838  1.00  0.00    -0.132 NA  
ATOM     5   N4  UNL     1      -2.169   0.379   1.364  1.00  0.00    -0.076 NA  
ATOM     6   H10 UNL     1      -2.601  -0.562  -1.725  1.00  0.00     0.083 HD  
ENDROOT
BRANCH   1   7
ATOM     7   C7  UNL     1      -4.072  -0.965   0.681  1.00  0.00     0.170 C   
BRANCH   7   8
ATOM     8   C6  UNL     1      -3.853  -2.168   1.606  1.00  0.00     0.164 C   
BRANCH   8   9
ATOM     9   C5  UNL     1      -2.879  -3.184   1.036  1.00  0.00    -0.015 A   
ATOM     10  C2  UNL     1      -1.011  -5.011  -0.049  1.00  0.00    -0.015 A   
ATOM     11  C3  UNL     1      -2.344  -5.018  -0.480  1.00  0.00     0.007 A   
ATOM     12  C23 UNL     1      -0.625  -4.073   0.909  1.00  0.00     0.126 A   
ATOM     13  C4  UNL     1      -3.268  -4.112   0.056  1.00  0.00     0.007 A   
ATOM     14  C22 UNL     1      -1.540  -3.176   1.457  1.00  0.00     0.046 A   
ATOM     15  C1  UNL     1      -0.003  -5.957  -0.631  1.00  0.00     0.047 C   
ATOM     16  F1  UNL     1       0.656  -4.009   1.306  1.00  0.00    -0.207 F   
ENDBRANCH   8   9
BRANCH   8  17
ATOM     17  O1  UNL     1      -5.115  -2.798   1.841  1.00  0.00    -0.387 OA  
ATOM     18  H7  UNL     1      -4.940  -3.624   2.328  1.00  0.00     0.211 HD  
ENDBRANCH   8  17
ENDBRANCH   7   8
ENDBRANCH   1   7
BRANCH   3  19
ATOM     19  C10 UNL     1       0.127   0.938  -1.350  1.00  0.00     0.117 C   
BRANCH  19  20
ATOM     20  N2  UNL     1       1.128   1.714  -0.535  1.00  0.00     0.249 N   
ATOM     21  H12 UNL     1       1.133   1.291   0.406  1.00  0.00     0.199 HD  
ATOM     22  H13 UNL     1       2.083   1.617  -0.893  1.00  0.00     0.199 HD  
BRANCH  20  23
ATOM     23  C11 UNL     1       0.821   3.160  -0.357  1.00  0.00     0.164 C   
BRANCH  23  24
ATOM     24  C12 UNL     1       1.744   3.767   0.663  1.00  0.00    -0.002 A   
ATOM     25  C13 UNL     1       1.340   3.861   2.018  1.00  0.00     0.012 A   
ATOM     26  C17 UNL     1       3.035   4.180   0.295  1.00  0.00     0.045 A   
ATOM     27  C14 UNL     1       2.202   4.377   2.993  1.00  0.00     0.037 A   
ATOM     28  C16 UNL     1       3.862   4.679   1.283  1.00  0.00     0.109 A   
ATOM     29  C15 UNL     1       3.456   4.780   2.592  1.00  0.00     0.108 A   
ATOM     30  O2  UNL     1       5.137   5.109   1.101  1.00  0.00    -0.316 OA  
ATOM     31  O3  UNL     1       4.425   5.289   3.399  1.00  0.00    -0.316 OA  
ATOM     32  C18 UNL     1       5.483   5.522   2.445  1.00  0.00     0.337 C   
ENDBRANCH  23  24
ENDBRANCH  20  23
ENDBRANCH  19  20
BRANCH  19  33
ATOM     33  C19 UNL     1       0.818  -0.283  -2.015  1.00  0.00     0.037 C   
ATOM     34  C20 UNL     1       1.544  -1.198  -1.023  1.00  0.00     0.014 C   
ATOM     35  C21 UNL     1       1.779   0.147  -3.130  1.00  0.00     0.014 C   
ENDBRANCH  19  33
ENDBRANCH   3  19
TORSDOF 9
