REMARK SMILES Cc1cc(CCn2cc([C@@H]([NH2+]Cc3ccc4c(c3)OCO4)C(C)(C)C)nn2)ccn1
REMARK SMILES IDX 7 1 8 2 9 3 26 4 27 5 6 7 5 8 4 9 2 10 3 11 30 12 29 13
REMARK SMILES IDX 28 14 1 15 10 16 11 17 12 20 13 21 14 22 18 23 15 24 17 25
REMARK SMILES IDX 16 26 19 27 21 28 20 29 22 30 23 31 24 32 25 33
REMARK H PARENT 8 6 11 18 11 19
ROOT
ATOM     1   N1  UNL     1       1.021   1.752  -2.399  1.00  0.00    -0.212 N   
ATOM     2   C7  UNL     1       1.398   0.910  -1.390  1.00  0.00     0.045 A   
ATOM     3   C8  UNL     1       0.524  -0.148  -1.497  1.00  0.00     0.127 A   
ATOM     4   N3  UNL     1      -0.326   0.075  -2.550  1.00  0.00    -0.132 NA  
ATOM     5   N4  UNL     1       0.000   1.232  -3.105  1.00  0.00    -0.076 NA  
ATOM     6   H9  UNL     1       2.187   1.155  -0.692  1.00  0.00     0.083 HD  
ENDROOT
BRANCH   1   7
ATOM     7   C6  UNL     1       1.500   3.094  -2.657  1.00  0.00     0.139 C   
BRANCH   7   8
ATOM     8   C5  UNL     1       0.444   4.177  -2.402  1.00  0.00     0.057 C   
BRANCH   8   9
ATOM     9   C4  UNL     1      -0.229   4.053  -1.054  1.00  0.00    -0.043 A   
ATOM     10  C2  UNL     1      -2.164   3.505   0.271  1.00  0.00     0.037 A   
ATOM     11  C3  UNL     1      -1.581   3.696  -0.977  1.00  0.00     0.027 A   
ATOM     12  N5  UNL     1      -1.466   3.622   1.422  1.00  0.00    -0.262 NA  
ATOM     13  C23 UNL     1      -0.180   4.027   1.333  1.00  0.00     0.111 A   
ATOM     14  C22 UNL     1       0.476   4.249   0.133  1.00  0.00     0.024 A   
ATOM     15  C1  UNL     1      -3.617   3.150   0.379  1.00  0.00     0.067 C   
ENDBRANCH   8   9
ENDBRANCH   7   8
ENDBRANCH   1   7
BRANCH   3  16
ATOM     16  C9  UNL     1       0.319  -1.342  -0.616  1.00  0.00     0.120 C   
BRANCH  16  17
ATOM     17  N2  UNL     1      -1.168  -1.507  -0.372  1.00  0.00     0.250 N   
ATOM     18  H11 UNL     1      -1.620  -1.387  -1.290  1.00  0.00     0.199 HD  
ATOM     19  H12 UNL     1      -1.391  -2.449  -0.048  1.00  0.00     0.199 HD  
BRANCH  17  20
ATOM     20  C10 UNL     1      -1.787  -0.518   0.563  1.00  0.00     0.164 C   
BRANCH  20  21
ATOM     21  C11 UNL     1      -1.364  -0.730   1.990  1.00  0.00    -0.002 A   
ATOM     22  C12 UNL     1      -1.809  -1.862   2.714  1.00  0.00     0.012 A   
ATOM     23  C16 UNL     1      -0.496   0.187   2.607  1.00  0.00     0.045 A   
ATOM     24  C13 UNL     1      -1.387  -2.084   4.030  1.00  0.00     0.037 A   
ATOM     25  C15 UNL     1      -0.097  -0.062   3.903  1.00  0.00     0.109 A   
ATOM     26  C14 UNL     1      -0.529  -1.167   4.594  1.00  0.00     0.108 A   
ATOM     27  O1  UNL     1       0.746   0.713   4.635  1.00  0.00    -0.316 OA  
ATOM     28  O2  UNL     1      -0.018  -1.224   5.851  1.00  0.00    -0.316 OA  
ATOM     29  C17 UNL     1       0.756  -0.006   5.890  1.00  0.00     0.337 C   
ENDBRANCH  20  21
ENDBRANCH  17  20
ENDBRANCH  16  17
BRANCH  16  30
ATOM     30  C18 UNL     1       0.936  -2.672  -1.174  1.00  0.00     0.010 C   
ATOM     31  C19 UNL     1       0.827  -3.794  -0.115  1.00  0.00     0.017 C   
ATOM     32  C20 UNL     1       2.441  -2.475  -1.466  1.00  0.00     0.017 C   
ATOM     33  C21 UNL     1       0.251  -3.159  -2.466  1.00  0.00     0.017 C   
ENDBRANCH  16  30
ENDBRANCH   3  16
TORSDOF 8
