REMARK SMILES Cc1cc(Cn2cc([C@@H]([NH2+]Cc3ccc4c(c3)OCO4)C(C)C)nn2)c(C)[nH]1
REMARK SMILES IDX 6 1 7 2 8 3 24 4 25 5 5 7 4 8 2 9 3 10 28 11 26 12 1 13
REMARK SMILES IDX 27 15 9 16 10 17 11 20 12 21 13 22 17 23 14 24 16 25 15 26
REMARK SMILES IDX 18 27 20 28 19 29 21 30 22 31 23 32
REMARK H PARENT 7 6 28 14 10 18 10 19
ROOT
ATOM     1   N1  UNL     1      -1.898   0.529  -1.659  1.00  0.00    -0.208 N   
ATOM     2   C6  UNL     1      -1.823  -0.328  -0.593  1.00  0.00     0.046 A   
ATOM     3   C7  UNL     1      -0.547  -0.147  -0.108  1.00  0.00     0.127 A   
ATOM     4   N3  UNL     1       0.113   0.755  -0.904  1.00  0.00    -0.132 NA  
ATOM     5   N4  UNL     1      -0.714   1.143  -1.861  1.00  0.00    -0.076 NA  
ATOM     6   H7  UNL     1      -2.664  -0.930  -0.279  1.00  0.00     0.083 HD  
ENDROOT
BRANCH   1   7
ATOM     7   C5  UNL     1      -3.024   0.768  -2.550  1.00  0.00     0.171 C   
BRANCH   7   8
ATOM     8   C4  UNL     1      -4.209   1.275  -1.793  1.00  0.00    -0.010 A   
ATOM     9   C2  UNL     1      -6.240   1.360  -0.786  1.00  0.00     0.004 A   
ATOM     10  C3  UNL     1      -5.387   0.535  -1.486  1.00  0.00     0.025 A   
ATOM     11  N5  UNL     1      -5.627   2.580  -0.663  1.00  0.00    -0.322 N   
ATOM     12  C20 UNL     1      -4.393   2.546  -1.267  1.00  0.00     0.008 A   
ATOM     13  C1  UNL     1      -7.595   1.113  -0.233  1.00  0.00     0.061 C   
ATOM     14  H28 UNL     1      -6.032   3.389  -0.208  1.00  0.00     0.152 HD  
ATOM     15  C21 UNL     1      -3.508   3.743  -1.284  1.00  0.00     0.062 C   
ENDBRANCH   7   8
ENDBRANCH   1   7
BRANCH   3  16
ATOM     16  C8  UNL     1       0.162  -0.758   1.060  1.00  0.00     0.117 C   
BRANCH  16  17
ATOM     17  N2  UNL     1       1.652  -0.619   0.896  1.00  0.00     0.249 N   
ATOM     18  H9  UNL     1       1.820   0.336   0.545  1.00  0.00     0.199 HD  
ATOM     19  H10 UNL     1       2.151  -0.689   1.787  1.00  0.00     0.199 HD  
BRANCH  17  20
ATOM     20  C9  UNL     1       2.273  -1.556  -0.081  1.00  0.00     0.164 C   
BRANCH  20  21
ATOM     21  C10 UNL     1       3.733  -1.242  -0.248  1.00  0.00    -0.002 A   
ATOM     22  C11 UNL     1       4.144  -0.256  -1.178  1.00  0.00     0.012 A   
ATOM     23  C15 UNL     1       4.692  -1.880   0.555  1.00  0.00     0.045 A   
ATOM     24  C12 UNL     1       5.494   0.083  -1.316  1.00  0.00     0.037 A   
ATOM     25  C14 UNL     1       6.015  -1.522   0.394  1.00  0.00     0.109 A   
ATOM     26  C13 UNL     1       6.405  -0.569  -0.514  1.00  0.00     0.108 A   
ATOM     27  O1  UNL     1       7.063  -2.038   1.088  1.00  0.00    -0.316 OA  
ATOM     28  O2  UNL     1       7.748  -0.367  -0.509  1.00  0.00    -0.316 OA  
ATOM     29  C16 UNL     1       8.167  -1.318   0.494  1.00  0.00     0.337 C   
ENDBRANCH  20  21
ENDBRANCH  17  20
ENDBRANCH  16  17
BRANCH  16  30
ATOM     30  C17 UNL     1      -0.291  -0.136   2.407  1.00  0.00     0.037 C   
ATOM     31  C18 UNL     1       0.128   1.328   2.587  1.00  0.00     0.014 C   
ATOM     32  C19 UNL     1       0.192  -0.964   3.605  1.00  0.00     0.014 C   
ENDBRANCH  16  30
ENDBRANCH   3  16
TORSDOF 7
