REMARK SMILES CC(C)(C)[C@H]([NH2+]Cc1ccc2c(c1)OCO2)c1cn(Cc2cc(Cl)cnc2F)nn1
REMARK SMILES IDX 17 1 18 2 19 3 29 4 30 5 5 7 2 8 1 9 3 10 4 11 6 12 7 15
REMARK SMILES IDX 8 16 9 17 13 18 10 19 12 20 11 21 14 22 16 23 15 24 20 25
REMARK SMILES IDX 21 26 22 27 27 28 23 29 26 30 25 31 28 32 24 33
REMARK H PARENT 18 6 6 13 6 14
ROOT
ATOM     1   C14 UNL     1      -1.194   0.730   0.961  1.00  0.00     0.127 A   
ATOM     2   C15 UNL     1      -1.472   0.499  -0.368  1.00  0.00     0.046 A   
ATOM     3   N2  UNL     1      -1.145   1.675  -0.983  1.00  0.00    -0.208 N   
ATOM     4   N4  UNL     1      -0.708   2.580  -0.088  1.00  0.00    -0.076 NA  
ATOM     5   N5  UNL     1      -0.727   2.011   1.106  1.00  0.00    -0.132 NA  
ATOM     6   H20 UNL     1      -1.844  -0.357  -0.913  1.00  0.00     0.083 HD  
ENDROOT
BRANCH   1   7
ATOM     7   C5  UNL     1      -1.259  -0.177   2.151  1.00  0.00     0.120 C   
BRANCH   7   8
ATOM     8   C2  UNL     1      -2.614  -0.104   2.940  1.00  0.00     0.010 C   
ATOM     9   C1  UNL     1      -2.839   1.264   3.614  1.00  0.00     0.017 C   
ATOM     10  C3  UNL     1      -2.652  -1.200   4.031  1.00  0.00     0.017 C   
ATOM     11  C4  UNL     1      -3.804  -0.377   1.993  1.00  0.00     0.017 C   
ENDBRANCH   7   8
BRANCH   7  12
ATOM     12  N1  UNL     1      -0.095   0.133   3.072  1.00  0.00     0.250 N   
ATOM     13  H11 UNL     1       0.122   1.133   2.929  1.00  0.00     0.199 HD  
ATOM     14  H12 UNL     1      -0.363   0.049   4.054  1.00  0.00     0.199 HD  
BRANCH  12  15
ATOM     15  C6  UNL     1       1.153  -0.650   2.849  1.00  0.00     0.164 C   
BRANCH  15  16
ATOM     16  C7  UNL     1       1.946  -0.200   1.657  1.00  0.00    -0.002 A   
ATOM     17  C8  UNL     1       1.958  -0.963   0.466  1.00  0.00     0.012 A   
ATOM     18  C12 UNL     1       2.678   0.998   1.714  1.00  0.00     0.045 A   
ATOM     19  C9  UNL     1       2.689  -0.541  -0.651  1.00  0.00     0.037 A   
ATOM     20  C11 UNL     1       3.387   1.384   0.597  1.00  0.00     0.109 A   
ATOM     21  C10 UNL     1       3.393   0.638  -0.553  1.00  0.00     0.108 A   
ATOM     22  O1  UNL     1       4.152   2.502   0.496  1.00  0.00    -0.316 OA  
ATOM     23  O2  UNL     1       4.157   1.196  -1.527  1.00  0.00    -0.316 OA  
ATOM     24  C13 UNL     1       4.660   2.365  -0.849  1.00  0.00     0.337 C   
ENDBRANCH  15  16
ENDBRANCH  12  15
ENDBRANCH   7  12
ENDBRANCH   1   7
BRANCH   3  25
ATOM     25  C16 UNL     1      -1.234   2.007  -2.394  1.00  0.00     0.174 C   
BRANCH  25  26
ATOM     26  C17 UNL     1       0.041   1.682  -3.110  1.00  0.00     0.028 A   
ATOM     27  C18 UNL     1       0.975   2.668  -3.448  1.00  0.00     0.032 A   
ATOM     28  C21 UNL     1       0.347   0.366  -3.442  1.00  0.00     0.217 A   
ATOM     29  C19 UNL     1       2.153   2.299  -4.092  1.00  0.00     0.059 A   
ATOM     30  N3  UNL     1       1.479  -0.021  -4.061  1.00  0.00    -0.226 NA  
ATOM     31  C20 UNL     1       2.360   0.958  -4.376  1.00  0.00     0.134 A   
ATOM     32  F1  UNL     1      -0.525  -0.598  -3.114  1.00  0.00    -0.185 F   
ATOM     33  CL1 UNL     1       3.321   3.480  -4.513  1.00  0.00    -0.083 Cl  
ENDBRANCH  25  26
ENDBRANCH   3  25
TORSDOF 7
