REMARK SMILES CC(C)(C)[C@H]([NH2+]Cc1ccc2c(c1)OCO2)c1cn(-c2cc(CO)ccc2F)nn1
REMARK SMILES IDX 17 1 18 2 19 3 29 4 30 5 5 6 2 7 1 8 3 9 4 10 6 11 7 14 8 15
REMARK SMILES IDX 9 16 13 17 10 18 12 19 11 20 14 21 16 22 15 23 20 24 21 25
REMARK SMILES IDX 27 26 22 27 26 28 25 29 28 30 23 31 24 32
REMARK H PARENT 6 12 6 13 24 33
ROOT
ATOM     1   C14 UNL     1       0.629  -1.267  -0.085  1.00  0.00     0.128 A   
ATOM     2   C15 UNL     1       1.099  -0.126  -0.694  1.00  0.00     0.135 A   
ATOM     3   N2  UNL     1      -0.006   0.443  -1.298  1.00  0.00    -0.178 N   
ATOM     4   N3  UNL     1      -1.066  -0.396  -1.129  1.00  0.00    -0.071 NA  
ATOM     5   N4  UNL     1      -0.694  -1.420  -0.381  1.00  0.00    -0.131 NA  
ENDROOT
BRANCH   1   6
ATOM     6   C5  UNL     1       1.275  -2.193   0.900  1.00  0.00     0.120 C   
BRANCH   6   7
ATOM     7   C2  UNL     1       1.737  -3.562   0.294  1.00  0.00     0.010 C   
ATOM     8   C1  UNL     1       2.695  -3.316  -0.895  1.00  0.00     0.017 C   
ATOM     9   C3  UNL     1       2.528  -4.371   1.349  1.00  0.00     0.017 C   
ATOM     10  C4  UNL     1       0.562  -4.428  -0.203  1.00  0.00     0.017 C   
ENDBRANCH   6   7
BRANCH   6  11
ATOM     11  N1  UNL     1       0.302  -2.413   2.048  1.00  0.00     0.250 N   
ATOM     12  H11 UNL     1      -0.642  -2.323   1.638  1.00  0.00     0.199 HD  
ATOM     13  H12 UNL     1       0.354  -3.369   2.406  1.00  0.00     0.199 HD  
BRANCH  11  14
ATOM     14  C6  UNL     1       0.400  -1.464   3.200  1.00  0.00     0.164 C   
BRANCH  14  15
ATOM     15  C7  UNL     1       0.147  -0.026   2.839  1.00  0.00    -0.002 A   
ATOM     16  C8  UNL     1       1.213   0.906   2.820  1.00  0.00     0.012 A   
ATOM     17  C12 UNL     1      -1.142   0.394   2.464  1.00  0.00     0.045 A   
ATOM     18  C9  UNL     1       1.008   2.226   2.402  1.00  0.00     0.037 A   
ATOM     19  C11 UNL     1      -1.308   1.700   2.050  1.00  0.00     0.109 A   
ATOM     20  C10 UNL     1      -0.263   2.589   2.012  1.00  0.00     0.108 A   
ATOM     21  O1  UNL     1      -2.473   2.250   1.620  1.00  0.00    -0.316 OA  
ATOM     22  O2  UNL     1      -0.636   3.810   1.551  1.00  0.00    -0.316 OA  
ATOM     23  C13 UNL     1      -2.042   3.591   1.294  1.00  0.00     0.337 C   
ENDBRANCH  14  15
ENDBRANCH  11  14
ENDBRANCH   6  11
ENDBRANCH   1   6
BRANCH   3  24
ATOM     24  C16 UNL     1      -0.147   1.693  -1.942  1.00  0.00     0.094 A   
ATOM     25  C17 UNL     1      -1.423   2.116  -2.355  1.00  0.00     0.035 A   
ATOM     26  C22 UNL     1       0.942   2.540  -2.147  1.00  0.00     0.146 A   
ATOM     27  C18 UNL     1      -1.606   3.377  -2.950  1.00  0.00    -0.020 A   
ATOM     28  C21 UNL     1       0.773   3.787  -2.745  1.00  0.00     0.042 A   
ATOM     29  C20 UNL     1      -0.496   4.208  -3.142  1.00  0.00     0.009 A   
ATOM     30  F1  UNL     1       2.185   2.194  -1.785  1.00  0.00    -0.205 F   
BRANCH  27  31
ATOM     31  C19 UNL     1      -2.986   3.832  -3.341  1.00  0.00     0.191 C   
BRANCH  31  32
ATOM     32  O3  UNL     1      -3.749   4.010  -2.156  1.00  0.00    -0.392 OA  
ATOM     33  H24 UNL     1      -4.631   4.309  -2.439  1.00  0.00     0.211 HD  
ENDBRANCH  31  32
ENDBRANCH  27  31
ENDBRANCH   3  24
TORSDOF 8
