REMARK SMILES Cn1cnc(Cl)c1CCn1cc([C@@H]([NH2+]Cc2ccc3c(c2)OCO3)C(C)(C)C)nn1
REMARK SMILES IDX 10 1 11 2 12 3 29 4 30 5 9 7 8 8 7 9 2 10 3 11 4 12 5 13
REMARK SMILES IDX 1 14 6 15 13 16 14 17 15 20 16 21 17 22 21 23 18 24 20 25
REMARK SMILES IDX 19 26 22 27 24 28 23 29 25 30 26 31 27 32 28 33
REMARK H PARENT 11 6 14 18 14 19
ROOT
ATOM     1   N3  UNL     1       0.673  -3.051  -1.900  1.00  0.00    -0.212 N   
ATOM     2   C7  UNL     1      -0.171  -3.106  -0.823  1.00  0.00     0.045 A   
ATOM     3   C8  UNL     1      -1.008  -2.027  -1.011  1.00  0.00     0.127 A   
ATOM     4   N5  UNL     1      -0.754  -1.476  -2.240  1.00  0.00    -0.132 NA  
ATOM     5   N6  UNL     1       0.229  -2.160  -2.806  1.00  0.00    -0.076 NA  
ATOM     6   H9  UNL     1       0.002  -3.770   0.013  1.00  0.00     0.083 HD  
ENDROOT
BRANCH   1   7
ATOM     7   C6  UNL     1       2.043  -3.526  -1.938  1.00  0.00     0.140 C   
BRANCH   7   8
ATOM     8   C5  UNL     1       3.113  -2.409  -1.926  1.00  0.00     0.076 C   
BRANCH   8   9
ATOM     9   C4  UNL     1       2.683  -1.150  -1.227  1.00  0.00     0.050 A   
ATOM     10  N1  UNL     1       2.510   0.061  -1.862  1.00  0.00    -0.296 N   
ATOM     11  C2  UNL     1       1.890   0.905  -0.985  1.00  0.00     0.190 A   
ATOM     12  N2  UNL     1       1.644   0.311   0.162  1.00  0.00    -0.227 NA  
ATOM     13  C3  UNL     1       2.273  -0.911   0.072  1.00  0.00     0.147 A   
ATOM     14  C1  UNL     1       2.854   0.395  -3.225  1.00  0.00     0.137 C   
ATOM     15  CL1 UNL     1       2.303  -1.992   1.385  1.00  0.00    -0.061 Cl  
ENDBRANCH   8   9
ENDBRANCH   7   8
ENDBRANCH   1   7
BRANCH   3  16
ATOM     16  C9  UNL     1      -1.931  -1.359  -0.034  1.00  0.00     0.120 C   
BRANCH  16  17
ATOM     17  N4  UNL     1      -1.372   0.004   0.304  1.00  0.00     0.250 N   
ATOM     18  H11 UNL     1      -0.377   0.032   0.008  1.00  0.00     0.199 HD  
ATOM     19  H12 UNL     1      -1.808   0.733  -0.266  1.00  0.00     0.199 HD  
BRANCH  17  20
ATOM     20  C10 UNL     1      -1.343   0.393   1.739  1.00  0.00     0.164 C   
BRANCH  20  21
ATOM     21  C11 UNL     1      -1.078   1.864   1.906  1.00  0.00    -0.002 A   
ATOM     22  C12 UNL     1       0.214   2.328   2.244  1.00  0.00     0.012 A   
ATOM     23  C16 UNL     1      -2.109   2.796   1.694  1.00  0.00     0.045 A   
ATOM     24  C13 UNL     1       0.482   3.696   2.370  1.00  0.00     0.037 A   
ATOM     25  C15 UNL     1      -1.813   4.137   1.826  1.00  0.00     0.109 A   
ATOM     26  C14 UNL     1      -0.554   4.575   2.154  1.00  0.00     0.108 A   
ATOM     27  O1  UNL     1      -2.691   5.160   1.652  1.00  0.00    -0.316 OA  
ATOM     28  O2  UNL     1      -0.480   5.929   2.229  1.00  0.00    -0.316 OA  
ATOM     29  C17 UNL     1      -1.844   6.298   1.934  1.00  0.00     0.337 C   
ENDBRANCH  20  21
ENDBRANCH  17  20
ENDBRANCH  16  17
BRANCH  16  30
ATOM     30  C18 UNL     1      -3.432  -1.300  -0.497  1.00  0.00     0.010 C   
ATOM     31  C19 UNL     1      -4.328  -0.704   0.608  1.00  0.00     0.017 C   
ATOM     32  C20 UNL     1      -3.940  -2.738  -0.762  1.00  0.00     0.017 C   
ATOM     33  C21 UNL     1      -3.660  -0.471  -1.778  1.00  0.00     0.017 C   
ENDBRANCH  16  30
ENDBRANCH   3  16
TORSDOF 8
