REMARK SMILES COc1ccc(OC)c(-n2cc([C@@H]([NH2+]Cc3ccc4c(c3)OCO4)C3CCCC3)nn2)c1
REMARK SMILES IDX 10 1 11 2 12 3 30 4 31 5 9 6 3 7 4 8 32 9 5 10 6 11 2 12
REMARK SMILES IDX 1 13 7 14 8 15 13 16 14 17 15 20 16 21 17 22 21 23 18 24
REMARK SMILES IDX 20 25 19 26 22 27 24 28 23 29 25 30 26 31 29 32 27 33 28 34
REMARK H PARENT 14 18 14 19
ROOT
ATOM     1   N1  UNL     1      -1.638  -0.778  -0.069  1.00  0.00    -0.178 N   
ATOM     2   C8  UNL     1      -0.300  -1.131  -0.120  1.00  0.00     0.135 A   
ATOM     3   C9  UNL     1       0.398   0.054  -0.086  1.00  0.00     0.127 A   
ATOM     4   N3  UNL     1      -0.484   1.092  -0.037  1.00  0.00    -0.131 NA  
ATOM     5   N4  UNL     1      -1.705   0.587  -0.039  1.00  0.00    -0.071 NA  
ENDROOT
BRANCH   1   6
ATOM     6   C7  UNL     1      -2.823  -1.571  -0.051  1.00  0.00     0.090 A   
ATOM     7   C2  UNL     1      -5.272  -1.574   0.067  1.00  0.00     0.077 A   
ATOM     8   C3  UNL     1      -5.264  -2.961   0.032  1.00  0.00     0.036 A   
ATOM     9   C24 UNL     1      -4.057  -0.887   0.022  1.00  0.00     0.062 A   
ATOM     10  C4  UNL     1      -4.050  -3.655  -0.049  1.00  0.00     0.038 A   
ATOM     11  C5  UNL     1      -2.820  -2.978  -0.096  1.00  0.00     0.098 A   
BRANCH   7  12
ATOM     12  O1  UNL     1      -6.380  -0.777   0.130  1.00  0.00    -0.349 OA  
ATOM     13  C1  UNL     1      -7.621  -1.417   0.400  1.00  0.00     0.203 C   
ENDBRANCH   7  12
BRANCH  11  14
ATOM     14  O2  UNL     1      -1.622  -3.632  -0.187  1.00  0.00    -0.347 OA  
ATOM     15  C6  UNL     1      -1.631  -5.052  -0.308  1.00  0.00     0.203 C   
ENDBRANCH  11  14
ENDBRANCH   1   6
BRANCH   3  16
ATOM     16  C10 UNL     1       1.865   0.335  -0.123  1.00  0.00     0.117 C   
BRANCH  16  17
ATOM     17  N2  UNL     1       2.117   1.722  -0.650  1.00  0.00     0.249 N   
ATOM     18  H11 UNL     1       3.016   2.099  -0.338  1.00  0.00     0.199 HD  
ATOM     19  H12 UNL     1       1.393   2.327  -0.235  1.00  0.00     0.199 HD  
BRANCH  17  20
ATOM     20  C11 UNL     1       2.003   1.876  -2.126  1.00  0.00     0.164 C   
BRANCH  20  21
ATOM     21  C12 UNL     1       2.167   3.319  -2.512  1.00  0.00    -0.002 A   
ATOM     22  C13 UNL     1       3.439   3.828  -2.868  1.00  0.00     0.012 A   
ATOM     23  C17 UNL     1       1.061   4.187  -2.464  1.00  0.00     0.045 A   
ATOM     24  C14 UNL     1       3.607   5.181  -3.181  1.00  0.00     0.037 A   
ATOM     25  C16 UNL     1       1.262   5.514  -2.778  1.00  0.00     0.109 A   
ATOM     26  C15 UNL     1       2.499   5.998  -3.126  1.00  0.00     0.108 A   
ATOM     27  O3  UNL     1       0.307   6.480  -2.783  1.00  0.00    -0.316 OA  
ATOM     28  O4  UNL     1       2.479   7.329  -3.397  1.00  0.00    -0.316 OA  
ATOM     29  C18 UNL     1       1.081   7.630  -3.193  1.00  0.00     0.337 C   
ENDBRANCH  20  21
ENDBRANCH  17  20
ENDBRANCH  16  17
BRANCH  16  30
ATOM     30  C19 UNL     1       2.519   0.169   1.266  1.00  0.00     0.043 C   
ATOM     31  C20 UNL     1       2.085   1.191   2.332  1.00  0.00     0.010 C   
ATOM     32  C23 UNL     1       4.060   0.233   1.240  1.00  0.00     0.010 C   
ATOM     33  C21 UNL     1       3.289   1.298   3.254  1.00  0.00     0.001 C   
ATOM     34  C22 UNL     1       4.461   1.266   2.288  1.00  0.00     0.001 C   
ENDBRANCH  16  30
ENDBRANCH   3  16
TORSDOF 8
