REMARK SMILES Cc1ccnc2c1[C@H](n1cc([C@@H]([NH2+]Cc3ccc4c(c3)OCO4)C(C)C)nn1)CCO2
REMARK SMILES IDX 12 1 11 2 9 3 10 4 28 5 27 6 8 8 2 9 3 10 7 11 4 12 6 13
REMARK SMILES IDX 5 14 31 15 29 16 30 17 1 18 13 19 14 22 15 23 16 24 20 25
REMARK SMILES IDX 17 26 19 27 18 28 21 29 23 30 22 31 24 32 25 33 26 34
REMARK H PARENT 10 7 13 20 13 21
ROOT
ATOM     1   C10 UNL     1       0.851   0.922  -1.190  1.00  0.00     0.117 C   
ENDROOT
BRANCH   1   2
ATOM     2   C9  UNL     1       0.071   1.475  -0.037  1.00  0.00     0.127 A   
ATOM     3   N2  UNL     1      -0.833   2.011   1.862  1.00  0.00    -0.204 N   
ATOM     4   C8  UNL     1       0.089   1.164   1.304  1.00  0.00     0.046 A   
ATOM     5   N5  UNL     1      -1.400   2.779   0.909  1.00  0.00    -0.075 NA  
ATOM     6   N4  UNL     1      -0.848   2.469  -0.252  1.00  0.00    -0.132 NA  
ATOM     7   H7  UNL     1       0.663   0.455   1.887  1.00  0.00     0.083 HD  
BRANCH   3   8
ATOM     8   C7  UNL     1      -1.223   2.196   3.264  1.00  0.00     0.136 C   
ATOM     9   C2  UNL     1      -1.967  -0.140   4.005  1.00  0.00    -0.040 A   
ATOM     10  C3  UNL     1      -1.710  -1.282   4.770  1.00  0.00     0.024 A   
ATOM     11  C6  UNL     1      -1.049   0.931   4.064  1.00  0.00     0.027 A   
ATOM     12  C4  UNL     1      -0.565  -1.323   5.543  1.00  0.00     0.114 A   
ATOM     13  C5  UNL     1       0.070   0.792   4.886  1.00  0.00     0.172 A   
ATOM     14  N1  UNL     1       0.326  -0.316   5.605  1.00  0.00    -0.232 NA  
ATOM     15  O3  UNL     1       1.008   1.765   5.071  1.00  0.00    -0.329 OA  
ATOM     16  C22 UNL     1      -0.455   3.347   3.909  1.00  0.00     0.059 C   
ATOM     17  C23 UNL     1       0.960   2.900   4.217  1.00  0.00     0.172 C   
ATOM     18  C1  UNL     1      -3.221  -0.085   3.178  1.00  0.00     0.045 C   
ENDBRANCH   3   8
ENDBRANCH   1   2
BRANCH   1  19
ATOM     19  N3  UNL     1       0.198   1.309  -2.496  1.00  0.00     0.249 N   
ATOM     20  H9  UNL     1      -0.127   2.280  -2.376  1.00  0.00     0.199 HD  
ATOM     21  H10 UNL     1       0.873   1.314  -3.264  1.00  0.00     0.199 HD  
BRANCH  19  22
ATOM     22  C11 UNL     1      -0.988   0.496  -2.897  1.00  0.00     0.164 C   
BRANCH  22  23
ATOM     23  C12 UNL     1      -0.608  -0.879  -3.372  1.00  0.00    -0.002 A   
ATOM     24  C13 UNL     1      -0.929  -2.019  -2.597  1.00  0.00     0.012 A   
ATOM     25  C17 UNL     1       0.090  -1.041  -4.582  1.00  0.00     0.045 A   
ATOM     26  C14 UNL     1      -0.552  -3.301  -3.012  1.00  0.00     0.037 A   
ATOM     27  C16 UNL     1       0.449  -2.319  -4.961  1.00  0.00     0.109 A   
ATOM     28  C15 UNL     1       0.138  -3.417  -4.198  1.00  0.00     0.108 A   
ATOM     29  O1  UNL     1       1.130  -2.645  -6.090  1.00  0.00    -0.316 OA  
ATOM     30  O2  UNL     1       0.583  -4.574  -4.751  1.00  0.00    -0.316 OA  
ATOM     31  C18 UNL     1       1.206  -4.083  -5.958  1.00  0.00     0.337 C   
ENDBRANCH  22  23
ENDBRANCH  19  22
ENDBRANCH   1  19
BRANCH   1  32
ATOM     32  C19 UNL     1       2.331   1.391  -1.174  1.00  0.00     0.037 C   
ATOM     33  C20 UNL     1       3.189   0.592  -2.164  1.00  0.00     0.014 C   
ATOM     34  C21 UNL     1       2.510   2.893  -1.425  1.00  0.00     0.014 C   
ENDBRANCH   1  32
TORSDOF 6
