REMARK SMILES Cc1ccnc2c1[C@@H](n1cc([C@@H]([NH2+]Cc3ccc4c(c3)OCO4)C(C)C)nn1)CCO2
REMARK SMILES IDX 12 1 11 2 9 3 10 4 28 5 27 6 8 8 2 9 3 10 7 11 4 12 6 13
REMARK SMILES IDX 5 14 31 15 29 16 30 17 1 18 13 19 14 22 15 23 16 24 20 25
REMARK SMILES IDX 17 26 19 27 18 28 21 29 23 30 22 31 24 32 25 33 26 34
REMARK H PARENT 10 7 13 20 13 21
ROOT
ATOM     1   C10 UNL     1      -0.557  -0.920   2.135  1.00  0.00     0.117 C   
ENDROOT
BRANCH   1   2
ATOM     2   C9  UNL     1      -0.239  -0.674   0.696  1.00  0.00     0.127 A   
ATOM     3   N2  UNL     1       0.551  -0.145  -1.248  1.00  0.00    -0.204 N   
ATOM     4   C8  UNL     1       0.913  -0.263   0.067  1.00  0.00     0.046 A   
ATOM     5   N5  UNL     1      -0.750  -0.459  -1.411  1.00  0.00    -0.075 NA  
ATOM     6   N4  UNL     1      -1.242  -0.786  -0.231  1.00  0.00    -0.132 NA  
ATOM     7   H7  UNL     1       1.908  -0.044   0.425  1.00  0.00     0.083 HD  
BRANCH   3   8
ATOM     8   C7  UNL     1       1.335   0.277  -2.413  1.00  0.00     0.136 C   
ATOM     9   C2  UNL     1       3.125  -1.548  -2.573  1.00  0.00    -0.040 A   
ATOM     10  C3  UNL     1       4.476  -1.900  -2.478  1.00  0.00     0.024 A   
ATOM     11  C6  UNL     1       2.759  -0.204  -2.334  1.00  0.00     0.027 A   
ATOM     12  C4  UNL     1       5.397  -0.927  -2.147  1.00  0.00     0.114 A   
ATOM     13  C5  UNL     1       3.770   0.698  -2.013  1.00  0.00     0.172 A   
ATOM     14  N1  UNL     1       5.068   0.353  -1.905  1.00  0.00    -0.232 NA  
ATOM     15  O3  UNL     1       3.571   2.032  -1.794  1.00  0.00    -0.329 OA  
ATOM     16  C22 UNL     1       1.273   1.788  -2.617  1.00  0.00     0.059 C   
ATOM     17  C23 UNL     1       2.218   2.469  -1.655  1.00  0.00     0.172 C   
ATOM     18  C1  UNL     1       2.119  -2.610  -2.917  1.00  0.00     0.045 C   
ENDBRANCH   3   8
ENDBRANCH   1   2
BRANCH   1  19
ATOM     19  N3  UNL     1      -1.987  -0.480   2.404  1.00  0.00     0.249 N   
ATOM     20  H9  UNL     1      -2.461  -0.493   1.484  1.00  0.00     0.199 HD  
ATOM     21  H10 UNL     1      -2.481  -1.172   2.976  1.00  0.00     0.199 HD  
BRANCH  19  22
ATOM     22  C11 UNL     1      -2.168   0.869   3.013  1.00  0.00     0.164 C   
BRANCH  22  23
ATOM     23  C12 UNL     1      -1.544   1.998   2.240  1.00  0.00    -0.002 A   
ATOM     24  C13 UNL     1      -0.449   2.714   2.789  1.00  0.00     0.012 A   
ATOM     25  C17 UNL     1      -2.031   2.352   0.969  1.00  0.00     0.045 A   
ATOM     26  C14 UNL     1       0.155   3.762   2.086  1.00  0.00     0.037 A   
ATOM     27  C16 UNL     1      -1.414   3.393   0.303  1.00  0.00     0.109 A   
ATOM     28  C15 UNL     1      -0.354   4.078   0.846  1.00  0.00     0.108 A   
ATOM     29  O1  UNL     1      -1.754   3.857  -0.928  1.00  0.00    -0.316 OA  
ATOM     30  O2  UNL     1       0.105   5.060   0.026  1.00  0.00    -0.316 OA  
ATOM     31  C18 UNL     1      -0.840   4.971  -1.061  1.00  0.00     0.337 C   
ENDBRANCH  22  23
ENDBRANCH  19  22
ENDBRANCH   1  19
BRANCH   1  32
ATOM     32  C19 UNL     1      -0.399  -2.396   2.579  1.00  0.00     0.037 C   
ATOM     33  C20 UNL     1      -1.229  -3.391   1.760  1.00  0.00     0.014 C   
ATOM     34  C21 UNL     1       1.072  -2.824   2.574  1.00  0.00     0.014 C   
ENDBRANCH   1  32
TORSDOF 6
