REMARK SMILES CC(C)(C)[C@H]([NH2+]Cc1ccc2c(c1)OCO2)c1cn(-c2ccc(O)c(Cl)c2)nn1
REMARK SMILES IDX 17 1 18 2 19 3 28 4 29 5 5 6 2 7 1 8 3 9 4 10 6 11 7 14 8 15
REMARK SMILES IDX 9 16 13 17 10 18 12 19 11 20 14 21 16 22 15 23 20 24 21 25
REMARK SMILES IDX 27 26 22 27 25 28 23 29 26 30 24 31
REMARK H PARENT 6 12 6 13 24 32
ROOT
ATOM     1   C14 UNL     1      -0.382   0.573  -1.108  1.00  0.00     0.128 A   
ATOM     2   C15 UNL     1      -0.672  -0.332  -0.112  1.00  0.00     0.135 A   
ATOM     3   N2  UNL     1       0.549  -0.868   0.248  1.00  0.00    -0.181 N   
ATOM     4   N3  UNL     1       1.508  -0.354  -0.564  1.00  0.00    -0.071 NA  
ATOM     5   N4  UNL     1       0.957   0.533  -1.375  1.00  0.00    -0.131 NA  
ENDROOT
BRANCH   1   6
ATOM     6   C5  UNL     1      -1.236   1.608  -1.779  1.00  0.00     0.120 C   
BRANCH   6   7
ATOM     7   C2  UNL     1      -1.714   1.213  -3.219  1.00  0.00     0.010 C   
ATOM     8   C1  UNL     1      -2.719   2.261  -3.752  1.00  0.00     0.017 C   
ATOM     9   C3  UNL     1      -2.459  -0.141  -3.176  1.00  0.00     0.017 C   
ATOM     10  C4  UNL     1      -0.554   1.094  -4.227  1.00  0.00     0.017 C   
ENDBRANCH   6   7
BRANCH   6  11
ATOM     11  N1  UNL     1      -0.466   2.918  -1.809  1.00  0.00     0.250 N   
ATOM     12  H11 UNL     1       0.531   2.659  -1.882  1.00  0.00     0.199 HD  
ATOM     13  H12 UNL     1      -0.672   3.454  -2.656  1.00  0.00     0.199 HD  
BRANCH  11  14
ATOM     14  C6  UNL     1      -0.628   3.818  -0.626  1.00  0.00     0.164 C   
BRANCH  14  15
ATOM     15  C7  UNL     1      -0.114   3.233   0.660  1.00  0.00    -0.002 A   
ATOM     16  C8  UNL     1       1.280   3.125   0.888  1.00  0.00     0.012 A   
ATOM     17  C12 UNL     1      -1.010   2.727   1.619  1.00  0.00     0.045 A   
ATOM     18  C9  UNL     1       1.776   2.500   2.038  1.00  0.00     0.037 A   
ATOM     19  C11 UNL     1      -0.487   2.108   2.736  1.00  0.00     0.109 A   
ATOM     20  C10 UNL     1       0.866   1.995   2.939  1.00  0.00     0.108 A   
ATOM     21  O1  UNL     1      -1.210   1.525   3.727  1.00  0.00    -0.316 OA  
ATOM     22  O2  UNL     1       1.165   1.335   4.087  1.00  0.00    -0.316 OA  
ATOM     23  C13 UNL     1      -0.154   1.078   4.611  1.00  0.00     0.337 C   
ENDBRANCH  14  15
ENDBRANCH  11  14
ENDBRANCH   6  11
ENDBRANCH   1   6
BRANCH   3  24
ATOM     24  C16 UNL     1       0.856  -1.761   1.304  1.00  0.00     0.059 A   
ATOM     25  C17 UNL     1      -0.151  -2.253   2.149  1.00  0.00     0.029 A   
ATOM     26  C21 UNL     1       2.192  -2.139   1.521  1.00  0.00     0.049 A   
ATOM     27  C18 UNL     1       0.177  -3.110   3.203  1.00  0.00     0.037 A   
ATOM     28  C20 UNL     1       2.509  -2.995   2.577  1.00  0.00     0.072 A   
ATOM     29  C19 UNL     1       1.502  -3.475   3.414  1.00  0.00     0.090 A   
ATOM     30  CL1 UNL     1       4.152  -3.445   2.840  1.00  0.00    -0.081 Cl  
BRANCH  29  31
ATOM     31  O3  UNL     1       1.761  -4.310   4.463  1.00  0.00    -0.359 OA  
ATOM     32  H23 UNL     1       2.722  -4.486   4.473  1.00  0.00     0.218 HD  
ENDBRANCH  29  31
ENDBRANCH   3  24
TORSDOF 7
