REMARK SMILES c1cc2c(s1)CCN[C@@H]2Cn1cc([C@@H]([NH2+]Cc2ccc3c(c2)OCO3)C2CCCCC2)nn1
REMARK SMILES IDX 11 1 12 2 13 3 32 4 33 5 10 7 9 8 1 9 2 10 5 11 3 12 4 13
REMARK SMILES IDX 6 14 8 15 7 16 14 18 15 19 16 22 17 23 18 24 22 25 19 26
REMARK SMILES IDX 21 27 20 28 23 29 25 30 24 31 26 32 27 33 31 34 28 35 30 36
REMARK SMILES IDX 29 37
REMARK H PARENT 12 6 8 17 15 20 15 21
ROOT
ATOM     1   N2  UNL     1       0.170  -2.476   1.419  1.00  0.00    -0.210 N   
ATOM     2   C9  UNL     1       0.705  -1.322   0.920  1.00  0.00     0.045 A   
ATOM     3   C10 UNL     1      -0.073  -1.043  -0.181  1.00  0.00     0.127 A   
ATOM     4   N4  UNL     1      -0.998  -2.043  -0.340  1.00  0.00    -0.132 NA  
ATOM     5   N5  UNL     1      -0.832  -2.917   0.638  1.00  0.00    -0.076 NA  
ATOM     6   H11 UNL     1       1.536  -0.815   1.394  1.00  0.00     0.083 HD  
ENDROOT
BRANCH   1   7
ATOM     7   C8  UNL     1       0.584  -3.214   2.595  1.00  0.00     0.157 C   
BRANCH   7   8
ATOM     8   C7  UNL     1      -0.486  -3.247   3.705  1.00  0.00     0.104 C   
ATOM     9   C1  UNL     1      -1.779   0.249   4.394  1.00  0.00     0.046 A   
ATOM     10  C2  UNL     1      -1.702  -0.913   3.657  1.00  0.00     0.013 A   
ATOM     11  S1  UNL     1      -0.818   0.180   5.809  1.00  0.00    -0.102 S   
ATOM     12  C3  UNL     1      -0.821  -1.875   4.250  1.00  0.00    -0.019 A   
ATOM     13  C4  UNL     1      -0.319  -1.404   5.450  1.00  0.00    -0.005 A   
ATOM     14  C5  UNL     1       0.525  -2.212   6.383  1.00  0.00     0.058 C   
ATOM     15  N1  UNL     1      -0.065  -4.124   4.831  1.00  0.00    -0.308 NA  
ATOM     16  C6  UNL     1       0.977  -3.511   5.685  1.00  0.00     0.087 C   
ATOM     17  H7  UNL     1      -0.889  -4.286   5.417  1.00  0.00     0.123 HD  
ENDBRANCH   7   8
ENDBRANCH   1   7
BRANCH   3  18
ATOM     18  C11 UNL     1      -0.014   0.072  -1.180  1.00  0.00     0.117 C   
BRANCH  18  19
ATOM     19  N3  UNL     1      -0.578  -0.430  -2.494  1.00  0.00     0.249 N   
ATOM     20  H13 UNL     1      -1.602  -0.386  -2.463  1.00  0.00     0.199 HD  
ATOM     21  H14 UNL     1      -0.387  -1.443  -2.518  1.00  0.00     0.199 HD  
BRANCH  19  22
ATOM     22  C12 UNL     1      -0.055   0.179  -3.744  1.00  0.00     0.164 C   
BRANCH  22  23
ATOM     23  C13 UNL     1       1.357  -0.245  -4.041  1.00  0.00    -0.002 A   
ATOM     24  C14 UNL     1       1.626  -1.570  -4.469  1.00  0.00     0.012 A   
ATOM     25  C18 UNL     1       2.425   0.650  -3.853  1.00  0.00     0.045 A   
ATOM     26  C15 UNL     1       2.938  -2.002  -4.695  1.00  0.00     0.037 A   
ATOM     27  C17 UNL     1       3.707   0.191  -4.082  1.00  0.00     0.109 A   
ATOM     28  C16 UNL     1       3.956  -1.098  -4.488  1.00  0.00     0.108 A   
ATOM     29  O1  UNL     1       4.846   0.918  -3.935  1.00  0.00    -0.316 OA  
ATOM     30  O2  UNL     1       5.282  -1.344  -4.648  1.00  0.00    -0.316 OA  
ATOM     31  C19 UNL     1       5.846  -0.058  -4.310  1.00  0.00     0.337 C   
ENDBRANCH  22  23
ENDBRANCH  19  22
ENDBRANCH  18  19
BRANCH  18  32
ATOM     32  C20 UNL     1      -0.763   1.361  -0.747  1.00  0.00     0.043 C   
ATOM     33  C21 UNL     1      -0.002   2.098   0.375  1.00  0.00     0.010 C   
ATOM     34  C25 UNL     1      -2.230   1.134  -0.328  1.00  0.00     0.010 C   
ATOM     35  C22 UNL     1      -0.692   3.404   0.764  1.00  0.00     0.001 C   
ATOM     36  C24 UNL     1      -2.915   2.442   0.066  1.00  0.00     0.001 C   
ATOM     37  C23 UNL     1      -2.147   3.174   1.160  1.00  0.00     0.000 C   
ENDBRANCH  18  32
ENDBRANCH   3  18
TORSDOF 7
