REMARK SMILES c1cc2c(s1)CCN[C@H]2Cn1cc([C@@H]([NH2+]Cc2ccc3c(c2)OCO3)C2CCCCC2)nn1
REMARK SMILES IDX 11 1 12 2 13 3 32 4 33 5 10 7 9 8 1 9 2 10 5 11 3 12 4 13
REMARK SMILES IDX 6 14 8 15 7 16 14 18 15 19 16 22 17 23 18 24 22 25 19 26
REMARK SMILES IDX 21 27 20 28 23 29 25 30 24 31 26 32 27 33 31 34 28 35 30 36
REMARK SMILES IDX 29 37
REMARK H PARENT 12 6 8 17 15 20 15 21
ROOT
ATOM     1   N2  UNL     1       1.438   0.677  -2.082  1.00  0.00    -0.210 N   
ATOM     2   C9  UNL     1       0.459  -0.038  -1.452  1.00  0.00     0.045 A   
ATOM     3   C10 UNL     1      -0.132   0.876  -0.611  1.00  0.00     0.127 A   
ATOM     4   N4  UNL     1       0.449   2.104  -0.797  1.00  0.00    -0.132 NA  
ATOM     5   N5  UNL     1       1.400   1.973  -1.707  1.00  0.00    -0.076 NA  
ATOM     6   H11 UNL     1       0.320  -1.099  -1.613  1.00  0.00     0.083 HD  
ENDROOT
BRANCH   1   7
ATOM     7   C8  UNL     1       2.439   0.219  -3.022  1.00  0.00     0.157 C   
BRANCH   7   8
ATOM     8   C7  UNL     1       3.404  -0.855  -2.471  1.00  0.00     0.104 C   
ATOM     9   C1  UNL     1       5.038   0.751   0.563  1.00  0.00     0.046 A   
ATOM     10  C2  UNL     1       4.552   0.767  -0.727  1.00  0.00     0.013 A   
ATOM     11  S1  UNL     1       4.861  -0.783   1.296  1.00  0.00    -0.102 S   
ATOM     12  C3  UNL     1       4.009  -0.499  -1.125  1.00  0.00    -0.019 A   
ATOM     13  C4  UNL     1       4.157  -1.425  -0.109  1.00  0.00    -0.005 A   
ATOM     14  C5  UNL     1       3.737  -2.853  -0.219  1.00  0.00     0.058 C   
ATOM     15  N1  UNL     1       2.720  -2.178  -2.403  1.00  0.00    -0.308 NA  
ATOM     16  C6  UNL     1       3.530  -3.197  -1.704  1.00  0.00     0.087 C   
ATOM     17  H7  UNL     1       2.566  -2.508  -3.358  1.00  0.00     0.123 HD  
ENDBRANCH   7   8
ENDBRANCH   1   7
BRANCH   3  18
ATOM     18  C11 UNL     1      -1.173   0.699   0.443  1.00  0.00     0.117 C   
BRANCH  18  19
ATOM     19  N3  UNL     1      -0.888   1.597   1.624  1.00  0.00     0.249 N   
ATOM     20  H13 UNL     1      -1.691   1.638   2.254  1.00  0.00     0.199 HD  
ATOM     21  H14 UNL     1      -0.741   2.541   1.241  1.00  0.00     0.199 HD  
BRANCH  19  22
ATOM     22  C12 UNL     1       0.337   1.269   2.418  1.00  0.00     0.164 C   
BRANCH  22  23
ATOM     23  C13 UNL     1       0.251  -0.065   3.106  1.00  0.00    -0.002 A   
ATOM     24  C14 UNL     1      -0.584  -0.243   4.235  1.00  0.00     0.012 A   
ATOM     25  C18 UNL     1       0.974  -1.159   2.601  1.00  0.00     0.045 A   
ATOM     26  C15 UNL     1      -0.696  -1.494   4.852  1.00  0.00     0.037 A   
ATOM     27  C17 UNL     1       0.840  -2.377   3.231  1.00  0.00     0.109 A   
ATOM     28  C16 UNL     1       0.028  -2.541   4.325  1.00  0.00     0.108 A   
ATOM     29  O1  UNL     1       1.459  -3.530   2.864  1.00  0.00    -0.316 OA  
ATOM     30  O2  UNL     1       0.033  -3.818   4.788  1.00  0.00    -0.316 OA  
ATOM     31  C19 UNL     1       0.967  -4.437   3.877  1.00  0.00     0.337 C   
ENDBRANCH  22  23
ENDBRANCH  19  22
ENDBRANCH  18  19
BRANCH  18  32
ATOM     32  C20 UNL     1      -2.608   0.938  -0.097  1.00  0.00     0.043 C   
ATOM     33  C21 UNL     1      -2.876   2.374  -0.602  1.00  0.00     0.010 C   
ATOM     34  C25 UNL     1      -3.691   0.517   0.909  1.00  0.00     0.010 C   
ATOM     35  C22 UNL     1      -4.364   2.734  -0.663  1.00  0.00     0.001 C   
ATOM     36  C24 UNL     1      -5.082   0.499   0.269  1.00  0.00     0.001 C   
ATOM     37  C23 UNL     1      -5.245   1.511  -0.867  1.00  0.00     0.000 C   
ENDBRANCH  18  32
ENDBRANCH   3  18
TORSDOF 7
