REMARK SMILES Cc1cccc2c1O[C@@H](Cn1cc([C@@H]([NH2+]Cc3ccc4c(c3)OCO4)C(C)C)nn1)C2
REMARK SMILES IDX 11 1 12 2 13 3 29 4 30 5 10 7 9 8 2 9 3 10 7 11 4 12 6 13
REMARK SMILES IDX 8 14 5 15 31 16 1 17 14 18 15 19 16 22 17 23 18 24 22 25
REMARK SMILES IDX 19 26 21 27 20 28 23 29 25 30 24 31 26 32 27 33 28 34
REMARK H PARENT 12 6 15 20 15 21
ROOT
ATOM     1   N1  UNL     1       1.582  -2.683  -1.219  1.00  0.00    -0.210 N   
ATOM     2   C10 UNL     1       0.323  -2.249  -0.913  1.00  0.00     0.045 A   
ATOM     3   C11 UNL     1       0.153  -1.141  -1.713  1.00  0.00     0.127 A   
ATOM     4   N3  UNL     1       1.279  -0.958  -2.476  1.00  0.00    -0.132 NA  
ATOM     5   N4  UNL     1       2.137  -1.918  -2.178  1.00  0.00    -0.076 NA  
ATOM     6   H10 UNL     1      -0.284  -2.725  -0.155  1.00  0.00     0.083 HD  
ENDROOT
BRANCH   1   7
ATOM     7   C9  UNL     1       2.315  -3.789  -0.641  1.00  0.00     0.166 C   
BRANCH   7   8
ATOM     8   C8  UNL     1       3.090  -3.429   0.633  1.00  0.00     0.149 C   
ATOM     9   C2  UNL     1       1.616  -0.984   2.812  1.00  0.00    -0.020 A   
ATOM     10  C3  UNL     1       1.986   0.359   2.969  1.00  0.00     0.006 A   
ATOM     11  C7  UNL     1       2.373  -1.751   1.939  1.00  0.00     0.082 A   
ATOM     12  C4  UNL     1       3.067   0.898   2.253  1.00  0.00     0.001 A   
ATOM     13  C6  UNL     1       3.448  -1.227   1.240  1.00  0.00    -0.015 A   
ATOM     14  O1  UNL     1       2.152  -3.082   1.689  1.00  0.00    -0.340 OA  
ATOM     15  C5  UNL     1       3.810   0.101   1.381  1.00  0.00     0.006 A   
ATOM     16  C24 UNL     1       4.120  -2.300   0.473  1.00  0.00     0.072 C   
ATOM     17  C1  UNL     1       0.488  -1.581   3.594  1.00  0.00     0.047 C   
ENDBRANCH   7   8
ENDBRANCH   1   7
BRANCH   3  18
ATOM     18  C12 UNL     1      -0.947  -0.133  -1.780  1.00  0.00     0.117 C   
BRANCH  18  19
ATOM     19  N2  UNL     1      -0.348   1.249  -1.928  1.00  0.00     0.249 N   
ATOM     20  H12 UNL     1       0.386   1.163  -2.647  1.00  0.00     0.199 HD  
ATOM     21  H13 UNL     1      -1.045   1.914  -2.280  1.00  0.00     0.199 HD  
BRANCH  19  22
ATOM     22  C13 UNL     1       0.297   1.808  -0.704  1.00  0.00     0.164 C   
BRANCH  22  23
ATOM     23  C14 UNL     1      -0.709   2.373   0.260  1.00  0.00    -0.002 A   
ATOM     24  C15 UNL     1      -1.118   1.627   1.391  1.00  0.00     0.012 A   
ATOM     25  C19 UNL     1      -1.274   3.640   0.027  1.00  0.00     0.045 A   
ATOM     26  C16 UNL     1      -2.067   2.133   2.285  1.00  0.00     0.037 A   
ATOM     27  C18 UNL     1      -2.206   4.112   0.928  1.00  0.00     0.109 A   
ATOM     28  C17 UNL     1      -2.590   3.382   2.026  1.00  0.00     0.108 A   
ATOM     29  O2  UNL     1      -2.842   5.311   0.852  1.00  0.00    -0.316 OA  
ATOM     30  O3  UNL     1      -3.513   4.032   2.782  1.00  0.00    -0.316 OA  
ATOM     31  C20 UNL     1      -3.643   5.273   2.055  1.00  0.00     0.337 C   
ENDBRANCH  22  23
ENDBRANCH  19  22
ENDBRANCH  18  19
BRANCH  18  32
ATOM     32  C21 UNL     1      -1.956  -0.361  -2.935  1.00  0.00     0.037 C   
ATOM     33  C22 UNL     1      -1.335  -0.329  -4.336  1.00  0.00     0.014 C   
ATOM     34  C23 UNL     1      -2.736  -1.668  -2.744  1.00  0.00     0.014 C   
ENDBRANCH  18  32
ENDBRANCH   3  18
TORSDOF 7
