REMARK SMILES Cc1cccc2c1O[C@H](Cn1cc([C@@H]([NH2+]Cc3ccc4c(c3)OCO4)C(C)C)nn1)C2
REMARK SMILES IDX 11 1 12 2 13 3 29 4 30 5 10 7 9 8 2 9 3 10 7 11 4 12 6 13
REMARK SMILES IDX 8 14 5 15 31 16 1 17 14 18 15 19 16 22 17 23 18 24 22 25
REMARK SMILES IDX 19 26 21 27 20 28 23 29 25 30 24 31 26 32 27 33 28 34
REMARK H PARENT 12 6 15 20 15 21
ROOT
ATOM     1   N1  UNL     1       2.073  -0.455  -0.251  1.00  0.00    -0.210 N   
ATOM     2   C10 UNL     1       1.243  -1.051  -1.156  1.00  0.00     0.045 A   
ATOM     3   C11 UNL     1       1.098  -0.104  -2.145  1.00  0.00     0.127 A   
ATOM     4   N3  UNL     1       1.839   1.004  -1.819  1.00  0.00    -0.132 NA  
ATOM     5   N4  UNL     1       2.429   0.777  -0.657  1.00  0.00    -0.076 NA  
ATOM     6   H10 UNL     1       0.818  -2.033  -0.995  1.00  0.00     0.083 HD  
ENDROOT
BRANCH   1   7
ATOM     7   C9  UNL     1       2.493  -0.957   1.043  1.00  0.00     0.166 C   
BRANCH   7   8
ATOM     8   C8  UNL     1       1.564  -0.465   2.147  1.00  0.00     0.149 C   
ATOM     9   C2  UNL     1      -1.523  -1.608   3.538  1.00  0.00    -0.020 A   
ATOM     10  C3  UNL     1      -1.822  -1.797   4.895  1.00  0.00     0.006 A   
ATOM     11  C7  UNL     1      -0.216  -1.273   3.223  1.00  0.00     0.082 A   
ATOM     12  C4  UNL     1      -0.825  -1.673   5.879  1.00  0.00     0.001 A   
ATOM     13  C6  UNL     1       0.772  -1.152   4.189  1.00  0.00    -0.015 A   
ATOM     14  O1  UNL     1       0.243  -1.050   1.950  1.00  0.00    -0.340 OA  
ATOM     15  C5  UNL     1       0.488  -1.356   5.527  1.00  0.00     0.006 A   
ATOM     16  C24 UNL     1       2.069  -0.863   3.541  1.00  0.00     0.072 C   
ATOM     17  C1  UNL     1      -2.578  -1.726   2.485  1.00  0.00     0.047 C   
ENDBRANCH   7   8
ENDBRANCH   1   7
BRANCH   3  18
ATOM     18  C12 UNL     1       0.230  -0.084  -3.359  1.00  0.00     0.117 C   
BRANCH  18  19
ATOM     19  N2  UNL     1      -0.373   1.294  -3.545  1.00  0.00     0.249 N   
ATOM     20  H12 UNL     1      -0.814   1.363  -4.466  1.00  0.00     0.199 HD  
ATOM     21  H13 UNL     1       0.412   1.958  -3.524  1.00  0.00     0.199 HD  
BRANCH  19  22
ATOM     22  C13 UNL     1      -1.341   1.741  -2.497  1.00  0.00     0.164 C   
BRANCH  22  23
ATOM     23  C14 UNL     1      -2.590   0.906  -2.449  1.00  0.00    -0.002 A   
ATOM     24  C15 UNL     1      -3.568   1.018  -3.466  1.00  0.00     0.012 A   
ATOM     25  C19 UNL     1      -2.781  -0.016  -1.403  1.00  0.00     0.045 A   
ATOM     26  C16 UNL     1      -4.717   0.220  -3.449  1.00  0.00     0.037 A   
ATOM     27  C18 UNL     1      -3.924  -0.787  -1.417  1.00  0.00     0.109 A   
ATOM     28  C17 UNL     1      -4.864  -0.674  -2.411  1.00  0.00     0.108 A   
ATOM     29  O2  UNL     1      -4.257  -1.726  -0.493  1.00  0.00    -0.316 OA  
ATOM     30  O3  UNL     1      -5.908  -1.524  -2.237  1.00  0.00    -0.316 OA  
ATOM     31  C20 UNL     1      -5.535  -2.171  -1.002  1.00  0.00     0.337 C   
ENDBRANCH  22  23
ENDBRANCH  19  22
ENDBRANCH  18  19
BRANCH  18  32
ATOM     32  C21 UNL     1       0.956  -0.486  -4.670  1.00  0.00     0.037 C   
ATOM     33  C22 UNL     1       1.415  -1.948  -4.630  1.00  0.00     0.014 C   
ATOM     34  C23 UNL     1       2.138   0.415  -5.046  1.00  0.00     0.014 C   
ENDBRANCH  18  32
ENDBRANCH   3  18
TORSDOF 7
