REMARK SMILES c1cc(-n2cc([C@@H]([NH2+]Cc3ccc4c(c3)OCO4)C3CCCC3)nn2)c2[nH]ncc2c1
REMARK SMILES IDX 7 1 6 2 4 3 5 4 25 5 24 6 3 7 1 8 2 9 31 10 30 11 26 12
REMARK SMILES IDX 29 13 27 14 28 15 8 17 9 20 10 21 11 22 15 23 12 24 14 25
REMARK SMILES IDX 13 26 16 27 18 28 17 29 19 30 20 31 23 32 21 33 22 34
REMARK H PARENT 27 16 8 18 8 19
ROOT
ATOM     1   C6  UNL     1       0.203   2.031   0.507  1.00  0.00     0.117 C   
ENDROOT
BRANCH   1   2
ATOM     2   C5  UNL     1       1.351   1.102   0.260  1.00  0.00     0.127 A   
ATOM     3   N1  UNL     1       3.269   0.098  -0.069  1.00  0.00    -0.179 N   
ATOM     4   C4  UNL     1       2.707   1.333   0.183  1.00  0.00     0.135 A   
ATOM     5   N4  UNL     1       2.273  -0.824  -0.165  1.00  0.00    -0.071 NA  
ATOM     6   N3  UNL     1       1.112  -0.226   0.043  1.00  0.00    -0.131 NA  
BRANCH   3   7
ATOM     7   C3  UNL     1       4.628  -0.254  -0.234  1.00  0.00     0.081 A   
ATOM     8   C1  UNL     1       6.994   0.342  -0.318  1.00  0.00     0.003 A   
ATOM     9   C2  UNL     1       5.654   0.704  -0.149  1.00  0.00     0.028 A   
ATOM     10  C23 UNL     1       7.356  -0.985  -0.578  1.00  0.00     0.012 A   
ATOM     11  C22 UNL     1       6.348  -1.958  -0.665  1.00  0.00     0.019 A   
ATOM     12  C20 UNL     1       5.019  -1.582  -0.493  1.00  0.00     0.080 A   
ATOM     13  C21 UNL     1       6.300  -3.350  -0.904  1.00  0.00     0.141 A   
ATOM     14  N5  UNL     1       4.305  -2.748  -0.631  1.00  0.00    -0.236 N   
ATOM     15  N6  UNL     1       5.055  -3.830  -0.887  1.00  0.00    -0.192 NA  
ATOM     16  H23 UNL     1       3.298  -2.860  -0.561  1.00  0.00     0.176 HD  
ENDBRANCH   3   7
ENDBRANCH   1   2
BRANCH   1  17
ATOM     17  N2  UNL     1      -1.062   1.469  -0.081  1.00  0.00     0.249 N   
ATOM     18  H5  UNL     1      -1.086   0.465   0.156  1.00  0.00     0.199 HD  
ATOM     19  H6  UNL     1      -1.902   1.877   0.342  1.00  0.00     0.199 HD  
BRANCH  17  20
ATOM     20  C7  UNL     1      -1.179   1.570  -1.562  1.00  0.00     0.164 C   
BRANCH  20  21
ATOM     21  C8  UNL     1      -2.452   0.925  -2.030  1.00  0.00    -0.002 A   
ATOM     22  C9  UNL     1      -2.486  -0.464  -2.305  1.00  0.00     0.012 A   
ATOM     23  C13 UNL     1      -3.631   1.682  -2.141  1.00  0.00     0.045 A   
ATOM     24  C10 UNL     1      -3.674  -1.089  -2.697  1.00  0.00     0.037 A   
ATOM     25  C12 UNL     1      -4.785   1.034  -2.530  1.00  0.00     0.109 A   
ATOM     26  C11 UNL     1      -4.807  -0.312  -2.800  1.00  0.00     0.108 A   
ATOM     27  O1  UNL     1      -6.003   1.615  -2.686  1.00  0.00    -0.316 OA  
ATOM     28  O2  UNL     1      -6.041  -0.748  -3.162  1.00  0.00    -0.316 OA  
ATOM     29  C14 UNL     1      -6.793   0.484  -3.118  1.00  0.00     0.337 C   
ENDBRANCH  20  21
ENDBRANCH  17  20
ENDBRANCH   1  17
BRANCH   1  30
ATOM     30  C15 UNL     1       0.025   2.317   2.012  1.00  0.00     0.043 C   
ATOM     31  C16 UNL     1      -0.517   1.165   2.862  1.00  0.00     0.010 C   
ATOM     32  C19 UNL     1      -0.945   3.458   2.337  1.00  0.00     0.010 C   
ATOM     33  C17 UNL     1      -0.858   1.847   4.180  1.00  0.00     0.001 C   
ATOM     34  C18 UNL     1      -1.346   3.243   3.797  1.00  0.00     0.001 C   
ENDBRANCH   1  30
TORSDOF 6
