REMARK SMILES Cc1cc(Cn2cc([C@@H]([NH2+]Cc3ccc4c(c3)OCO4)C(C)C)nn2)c(C)o1
REMARK SMILES IDX 6 1 7 2 8 3 24 4 25 5 5 7 4 8 2 9 3 10 28 11 26 12 1 13
REMARK SMILES IDX 27 14 9 15 10 16 11 19 12 20 13 21 17 22 14 23 16 24 15 25
REMARK SMILES IDX 18 26 20 27 19 28 21 29 22 30 23 31
REMARK H PARENT 7 6 10 17 10 18
ROOT
ATOM     1   N1  UNL     1      -1.709   1.393   1.171  1.00  0.00    -0.208 N   
ATOM     2   C6  UNL     1      -0.648   1.090   0.361  1.00  0.00     0.046 A   
ATOM     3   C7  UNL     1      -1.235   0.712  -0.826  1.00  0.00     0.127 A   
ATOM     4   N3  UNL     1      -2.595   0.842  -0.719  1.00  0.00    -0.132 NA  
ATOM     5   N4  UNL     1      -2.873   1.258   0.506  1.00  0.00    -0.076 NA  
ATOM     6   H7  UNL     1       0.374   1.105   0.715  1.00  0.00     0.083 HD  
ENDROOT
BRANCH   1   7
ATOM     7   C5  UNL     1      -1.689   1.677   2.598  1.00  0.00     0.172 C   
BRANCH   7   8
ATOM     8   C4  UNL     1      -1.374   0.428   3.349  1.00  0.00     0.000 A   
ATOM     9   C2  UNL     1      -0.298  -1.173   4.506  1.00  0.00     0.056 A   
ATOM     10  C3  UNL     1      -0.138   0.087   3.974  1.00  0.00     0.037 A   
ATOM     11  O3  UNL     1      -1.553  -1.630   4.251  1.00  0.00    -0.319 OA  
ATOM     12  C20 UNL     1      -2.211  -0.653   3.572  1.00  0.00     0.061 A   
ATOM     13  C1  UNL     1       0.583  -2.079   5.271  1.00  0.00     0.073 C   
ATOM     14  C21 UNL     1      -3.615  -0.952   3.215  1.00  0.00     0.073 C   
ENDBRANCH   7   8
ENDBRANCH   1   7
BRANCH   3  15
ATOM     15  C8  UNL     1      -0.637   0.109  -2.053  1.00  0.00     0.117 C   
BRANCH  15  16
ATOM     16  N2  UNL     1      -1.488  -1.037  -2.562  1.00  0.00     0.249 N   
ATOM     17  H9  UNL     1      -2.419  -0.650  -2.764  1.00  0.00     0.199 HD  
ATOM     18  H10 UNL     1      -1.103  -1.391  -3.442  1.00  0.00     0.199 HD  
BRANCH  16  19
ATOM     19  C9  UNL     1      -1.708  -2.184  -1.622  1.00  0.00     0.164 C   
BRANCH  19  20
ATOM     20  C10 UNL     1      -0.442  -2.787  -1.082  1.00  0.00    -0.002 A   
ATOM     21  C11 UNL     1      -0.139  -2.676   0.298  1.00  0.00     0.012 A   
ATOM     22  C15 UNL     1       0.459  -3.445  -1.936  1.00  0.00     0.045 A   
ATOM     23  C12 UNL     1       1.049  -3.198   0.819  1.00  0.00     0.037 A   
ATOM     24  C14 UNL     1       1.622  -3.947  -1.389  1.00  0.00     0.109 A   
ATOM     25  C13 UNL     1       1.911  -3.826  -0.052  1.00  0.00     0.108 A   
ATOM     26  O1  UNL     1       2.598  -4.598  -2.075  1.00  0.00    -0.316 OA  
ATOM     27  O2  UNL     1       3.104  -4.386   0.273  1.00  0.00    -0.316 OA  
ATOM     28  C16 UNL     1       3.523  -4.907  -1.007  1.00  0.00     0.337 C   
ENDBRANCH  19  20
ENDBRANCH  16  19
ENDBRANCH  15  16
BRANCH  15  29
ATOM     29  C17 UNL     1      -0.410   1.111  -3.215  1.00  0.00     0.037 C   
ATOM     30  C18 UNL     1      -1.682   1.797  -3.726  1.00  0.00     0.014 C   
ATOM     31  C19 UNL     1       0.631   2.174  -2.841  1.00  0.00     0.014 C   
ENDBRANCH  15  29
ENDBRANCH   3  15
TORSDOF 7
