REMARK SMILES CC(C)(C)[C@H]([NH2+]Cc1ccc2c(c1)OCO2)c1cn(CCc2c(F)cncc2F)nn1
REMARK SMILES IDX 17 1 18 2 19 3 30 4 31 5 5 7 2 8 1 9 3 10 4 11 6 12 7 15
REMARK SMILES IDX 8 16 9 17 13 18 10 19 12 20 11 21 14 22 16 23 15 24 20 25
REMARK SMILES IDX 21 26 22 27 23 28 28 29 25 30 27 31 26 32 24 33 29 34
REMARK H PARENT 18 6 6 13 6 14
ROOT
ATOM     1   C14 UNL     1       1.726  -0.062  -1.028  1.00  0.00     0.127 A   
ATOM     2   C15 UNL     1       2.451  -1.156  -1.450  1.00  0.00     0.045 A   
ATOM     3   N2  UNL     1       3.573  -1.125  -0.672  1.00  0.00    -0.212 N   
ATOM     4   N4  UNL     1       3.541  -0.088   0.183  1.00  0.00    -0.076 NA  
ATOM     5   N5  UNL     1       2.417   0.574  -0.027  1.00  0.00    -0.132 NA  
ATOM     6   H20 UNL     1       2.275  -1.927  -2.188  1.00  0.00     0.083 HD  
ENDROOT
BRANCH   1   7
ATOM     7   C5  UNL     1       0.363   0.437  -1.404  1.00  0.00     0.120 C   
BRANCH   7   8
ATOM     8   C2  UNL     1       0.361   1.510  -2.547  1.00  0.00     0.010 C   
ATOM     9   C1  UNL     1      -1.090   1.854  -2.958  1.00  0.00     0.017 C   
ATOM     10  C3  UNL     1       1.062   0.950  -3.805  1.00  0.00     0.017 C   
ATOM     11  C4  UNL     1       1.071   2.816  -2.138  1.00  0.00     0.017 C   
ENDBRANCH   7   8
BRANCH   7  12
ATOM     12  N1  UNL     1      -0.298   0.988  -0.161  1.00  0.00     0.250 N   
ATOM     13  H11 UNL     1       0.412   1.567   0.314  1.00  0.00     0.199 HD  
ATOM     14  H12 UNL     1      -1.079   1.614  -0.371  1.00  0.00     0.199 HD  
BRANCH  12  15
ATOM     15  C6  UNL     1      -0.754  -0.032   0.824  1.00  0.00     0.164 C   
BRANCH  15  16
ATOM     16  C7  UNL     1      -1.268   0.634   2.068  1.00  0.00    -0.002 A   
ATOM     17  C8  UNL     1      -0.373   0.973   3.111  1.00  0.00     0.012 A   
ATOM     18  C12 UNL     1      -2.626   0.976   2.181  1.00  0.00     0.045 A   
ATOM     19  C9  UNL     1      -0.825   1.634   4.258  1.00  0.00     0.037 A   
ATOM     20  C11 UNL     1      -3.038   1.627   3.325  1.00  0.00     0.109 A   
ATOM     21  C10 UNL     1      -2.164   1.947   4.335  1.00  0.00     0.108 A   
ATOM     22  O1  UNL     1      -4.309   2.027   3.592  1.00  0.00    -0.316 OA  
ATOM     23  O2  UNL     1      -2.775   2.586   5.365  1.00  0.00    -0.316 OA  
ATOM     24  C13 UNL     1      -4.141   2.618   4.901  1.00  0.00     0.337 C   
ENDBRANCH  15  16
ENDBRANCH  12  15
ENDBRANCH   7  12
ENDBRANCH   1   7
BRANCH   3  25
ATOM     25  C16 UNL     1       4.679  -2.061  -0.648  1.00  0.00     0.139 C   
BRANCH  25  26
ATOM     26  C17 UNL     1       4.586  -3.054   0.511  1.00  0.00     0.063 C   
BRANCH  26  27
ATOM     27  C18 UNL     1       3.464  -4.047   0.356  1.00  0.00     0.028 A   
ATOM     28  C19 UNL     1       3.578  -5.127  -0.519  1.00  0.00     0.147 A   
ATOM     29  C22 UNL     1       2.268  -3.919   1.061  1.00  0.00     0.147 A   
ATOM     30  C20 UNL     1       2.522  -6.016  -0.656  1.00  0.00     0.150 A   
ATOM     31  C21 UNL     1       1.260  -4.855   0.877  1.00  0.00     0.150 A   
ATOM     32  N3  UNL     1       1.354  -5.897   0.019  1.00  0.00    -0.259 NA  
ATOM     33  F1  UNL     1       4.691  -5.288  -1.246  1.00  0.00    -0.205 F   
ATOM     34  F2  UNL     1       2.067  -2.881   1.885  1.00  0.00    -0.205 F   
ENDBRANCH  26  27
ENDBRANCH  25  26
ENDBRANCH   3  25
TORSDOF 8
