REMARK SMILES CC(C)[C@H]([NH2+]Cc1ccc2c(c1)OCO2)c1cn(Cc2cccnc2Cl)nn1
REMARK SMILES IDX 16 1 17 2 18 3 27 4 28 5 4 7 2 8 1 9 3 10 5 11 6 14 7 15
REMARK SMILES IDX 8 16 12 17 9 18 11 19 10 20 13 21 15 22 14 23 19 24 20 25
REMARK SMILES IDX 21 26 25 27 22 28 24 29 23 30 26 31
REMARK H PARENT 17 6 5 12 5 13
ROOT
ATOM     1   C13 UNL     1       1.424   0.097   0.995  1.00  0.00     0.127 A   
ATOM     2   C14 UNL     1       0.562  -0.630   1.784  1.00  0.00     0.046 A   
ATOM     3   N2  UNL     1      -0.157   0.323   2.452  1.00  0.00    -0.208 N   
ATOM     4   N4  UNL     1       0.265   1.560   2.125  1.00  0.00    -0.076 NA  
ATOM     5   N5  UNL     1       1.226   1.436   1.225  1.00  0.00    -0.132 NA  
ATOM     6   H18 UNL     1       0.386  -1.689   1.911  1.00  0.00     0.083 HD  
ENDROOT
BRANCH   1   7
ATOM     7   C4  UNL     1       2.430  -0.329  -0.026  1.00  0.00     0.117 C   
BRANCH   7   8
ATOM     8   C2  UNL     1       3.815  -0.633   0.604  1.00  0.00     0.037 C   
ATOM     9   C1  UNL     1       4.747  -1.326  -0.397  1.00  0.00     0.014 C   
ATOM     10  C3  UNL     1       4.516   0.591   1.205  1.00  0.00     0.014 C   
ENDBRANCH   7   8
BRANCH   7  11
ATOM     11  N1  UNL     1       2.553   0.735  -1.094  1.00  0.00     0.249 N   
ATOM     12  H9  UNL     1       2.239   1.613  -0.651  1.00  0.00     0.199 HD  
ATOM     13  H10 UNL     1       3.531   0.890  -1.354  1.00  0.00     0.199 HD  
BRANCH  11  14
ATOM     14  C5  UNL     1       1.753   0.524  -2.333  1.00  0.00     0.164 C   
BRANCH  14  15
ATOM     15  C6  UNL     1       0.268   0.477  -2.110  1.00  0.00    -0.002 A   
ATOM     16  C7  UNL     1      -0.446   1.653  -1.772  1.00  0.00     0.012 A   
ATOM     17  C11 UNL     1      -0.425  -0.741  -2.218  1.00  0.00     0.045 A   
ATOM     18  C8  UNL     1      -1.827   1.618  -1.546  1.00  0.00     0.037 A   
ATOM     19  C10 UNL     1      -1.786  -0.740  -1.990  1.00  0.00     0.109 A   
ATOM     20  C9  UNL     1      -2.468   0.406  -1.667  1.00  0.00     0.108 A   
ATOM     21  O1  UNL     1      -2.597  -1.828  -2.058  1.00  0.00    -0.316 OA  
ATOM     22  O2  UNL     1      -3.798   0.189  -1.504  1.00  0.00    -0.316 OA  
ATOM     23  C12 UNL     1      -3.880  -1.231  -1.756  1.00  0.00     0.337 C   
ENDBRANCH  14  15
ENDBRANCH  11  14
ENDBRANCH   7  11
ENDBRANCH   1   7
BRANCH   3  24
ATOM     24  C15 UNL     1      -1.210   0.136   3.436  1.00  0.00     0.172 C   
BRANCH  24  25
ATOM     25  C16 UNL     1      -2.571   0.304   2.825  1.00  0.00     0.009 A   
ATOM     26  C17 UNL     1      -3.199   1.558   2.835  1.00  0.00     0.010 A   
ATOM     27  C20 UNL     1      -3.262  -0.734   2.207  1.00  0.00     0.133 A   
ATOM     28  C18 UNL     1      -4.458   1.712   2.261  1.00  0.00     0.021 A   
ATOM     29  N3  UNL     1      -4.483  -0.616   1.646  1.00  0.00    -0.244 NA  
ATOM     30  C19 UNL     1      -5.056   0.605   1.686  1.00  0.00     0.113 A   
ATOM     31  CL1 UNL     1      -2.626  -2.326   2.067  1.00  0.00    -0.062 Cl  
ENDBRANCH  24  25
ENDBRANCH   3  24
TORSDOF 7
