REMARK SMILES Cc1cc([C@@H](CO)n2cc([C@@H]([NH2+]Cc3ccc4c(c3)OCO4)C3CCCCC3)nn2)c(C)[nH]1
REMARK SMILES IDX 8 1 9 2 10 3 29 4 30 5 5 7 4 8 2 9 3 10 33 11 31 12 1 13
REMARK SMILES IDX 32 15 6 16 7 17 11 19 12 20 13 23 14 24 15 25 19 26 16 27
REMARK SMILES IDX 18 28 17 29 20 30 22 31 21 32 23 33 24 34 28 35 25 36 27 37
REMARK SMILES IDX 26 38
REMARK H PARENT 9 6 33 14 7 18 12 21 12 22
ROOT
ATOM     1   N1  UNL     1      -1.331  -1.129  -0.064  1.00  0.00    -0.202 N   
ATOM     2   C7  UNL     1      -1.059   0.157   0.332  1.00  0.00     0.046 A   
ATOM     3   C8  UNL     1       0.219   0.384  -0.121  1.00  0.00     0.127 A   
ATOM     4   N3  UNL     1       0.686  -0.745  -0.745  1.00  0.00    -0.132 NA  
ATOM     5   N4  UNL     1      -0.271  -1.655  -0.719  1.00  0.00    -0.075 NA  
ATOM     6   H9  UNL     1      -1.780   0.756   0.870  1.00  0.00     0.083 HD  
ENDROOT
BRANCH   1   7
ATOM     7   C5  UNL     1      -2.587  -1.860   0.107  1.00  0.00     0.157 C   
BRANCH   7   8
ATOM     8   C4  UNL     1      -3.538  -1.495  -1.010  1.00  0.00    -0.005 A   
ATOM     9   C2  UNL     1      -4.416  -1.196  -3.083  1.00  0.00     0.004 A   
ATOM     10  C3  UNL     1      -3.296  -1.631  -2.410  1.00  0.00     0.026 A   
ATOM     11  N5  UNL     1      -5.337  -0.807  -2.144  1.00  0.00    -0.322 N   
ATOM     12  C24 UNL     1      -4.821  -0.981  -0.882  1.00  0.00     0.009 A   
ATOM     13  C1  UNL     1      -4.708  -1.120  -4.536  1.00  0.00     0.061 C   
ATOM     14  H34 UNL     1      -6.263  -0.455  -2.353  1.00  0.00     0.152 HD  
ATOM     15  C25 UNL     1      -5.619  -0.645   0.328  1.00  0.00     0.062 C   
ENDBRANCH   7   8
BRANCH   7  16
ATOM     16  C6  UNL     1      -2.403  -3.381   0.240  1.00  0.00     0.186 C   
BRANCH  16  17
ATOM     17  O1  UNL     1      -1.862  -3.718   1.522  1.00  0.00    -0.394 OA  
ATOM     18  H8  UNL     1      -1.717  -4.682   1.513  1.00  0.00     0.210 HD  
ENDBRANCH  16  17
ENDBRANCH   7  16
ENDBRANCH   1   7
BRANCH   3  19
ATOM     19  C9  UNL     1       1.123   1.567   0.006  1.00  0.00     0.117 C   
BRANCH  19  20
ATOM     20  N2  UNL     1       2.551   1.090   0.160  1.00  0.00     0.249 N   
ATOM     21  H11 UNL     1       3.189   1.624  -0.434  1.00  0.00     0.199 HD  
ATOM     22  H12 UNL     1       2.562   0.129  -0.220  1.00  0.00     0.199 HD  
BRANCH  20  23
ATOM     23  C10 UNL     1       3.091   1.051   1.548  1.00  0.00     0.164 C   
BRANCH  23  24
ATOM     24  C11 UNL     1       2.294   0.202   2.499  1.00  0.00    -0.002 A   
ATOM     25  C12 UNL     1       1.549   0.806   3.541  1.00  0.00     0.012 A   
ATOM     26  C16 UNL     1       2.258  -1.195   2.346  1.00  0.00     0.045 A   
ATOM     27  C13 UNL     1       0.768   0.035   4.408  1.00  0.00     0.037 A   
ATOM     28  C15 UNL     1       1.477  -1.926   3.217  1.00  0.00     0.109 A   
ATOM     29  C14 UNL     1       0.750  -1.328   4.217  1.00  0.00     0.108 A   
ATOM     30  O2  UNL     1       1.328  -3.277   3.204  1.00  0.00    -0.316 OA  
ATOM     31  O3  UNL     1       0.050  -2.225   4.958  1.00  0.00    -0.316 OA  
ATOM     32  C17 UNL     1       0.418  -3.462   4.309  1.00  0.00     0.337 C   
ENDBRANCH  23  24
ENDBRANCH  20  23
ENDBRANCH  19  20
BRANCH  19  33
ATOM     33  C18 UNL     1       0.992   2.543  -1.194  1.00  0.00     0.043 C   
ATOM     34  C19 UNL     1       1.451   1.956  -2.545  1.00  0.00     0.010 C   
ATOM     35  C23 UNL     1       1.715   3.876  -0.913  1.00  0.00     0.010 C   
ATOM     36  C20 UNL     1       1.283   2.961  -3.685  1.00  0.00     0.001 C   
ATOM     37  C22 UNL     1       1.541   4.869  -2.060  1.00  0.00     0.001 C   
ATOM     38  C21 UNL     1       1.995   4.276  -3.389  1.00  0.00     0.000 C   
ENDBRANCH  19  33
ENDBRANCH   3  19
TORSDOF 9
