REMARK SMILES Cc1cc([C@H](CO)n2cc([C@@H]([NH2+]Cc3ccc4c(c3)OCO4)C3CCCCC3)nn2)c(C)[nH]1
REMARK SMILES IDX 8 1 9 2 10 3 29 4 30 5 5 7 4 8 2 9 3 10 33 11 31 12 1 13
REMARK SMILES IDX 32 15 6 16 7 17 11 19 12 20 13 23 14 24 15 25 19 26 16 27
REMARK SMILES IDX 18 28 17 29 20 30 22 31 21 32 23 33 24 34 28 35 25 36 27 37
REMARK SMILES IDX 26 38
REMARK H PARENT 9 6 33 14 7 18 12 21 12 22
ROOT
ATOM     1   N1  UNL     1      -0.474  -1.968  -0.589  1.00  0.00    -0.202 N   
ATOM     2   C7  UNL     1       0.321  -0.875  -0.353  1.00  0.00     0.046 A   
ATOM     3   C8  UNL     1       0.790  -1.071   0.926  1.00  0.00     0.127 A   
ATOM     4   N3  UNL     1       0.296  -2.251   1.415  1.00  0.00    -0.132 NA  
ATOM     5   N4  UNL     1      -0.493  -2.778   0.494  1.00  0.00    -0.075 NA  
ATOM     6   H9  UNL     1       0.438  -0.082  -1.079  1.00  0.00     0.083 HD  
ENDROOT
BRANCH   1   7
ATOM     7   C5  UNL     1      -1.324  -2.209  -1.756  1.00  0.00     0.157 C   
BRANCH   7   8
ATOM     8   C4  UNL     1      -2.686  -1.600  -1.510  1.00  0.00    -0.005 A   
ATOM     9   C2  UNL     1      -4.732  -1.179  -0.615  1.00  0.00     0.004 A   
ATOM     10  C3  UNL     1      -3.615  -1.976  -0.493  1.00  0.00     0.026 A   
ATOM     11  N5  UNL     1      -4.525  -0.337  -1.678  1.00  0.00    -0.322 N   
ATOM     12  C24 UNL     1      -3.287  -0.575  -2.230  1.00  0.00     0.009 A   
ATOM     13  C1  UNL     1      -5.995  -1.151   0.167  1.00  0.00     0.061 C   
ATOM     14  H34 UNL     1      -5.194   0.345  -2.015  1.00  0.00     0.152 HD  
ATOM     15  C25 UNL     1      -2.808   0.194  -3.411  1.00  0.00     0.062 C   
ENDBRANCH   7   8
BRANCH   7  16
ATOM     16  C6  UNL     1      -1.388  -3.691  -2.157  1.00  0.00     0.186 C   
BRANCH  16  17
ATOM     17  O1  UNL     1      -0.147  -4.101  -2.738  1.00  0.00    -0.394 OA  
ATOM     18  H8  UNL     1      -0.212  -5.062  -2.894  1.00  0.00     0.210 HD  
ENDBRANCH  16  17
ENDBRANCH   7  16
ENDBRANCH   1   7
BRANCH   3  19
ATOM     19  C9  UNL     1       1.611  -0.193   1.812  1.00  0.00     0.117 C   
BRANCH  19  20
ATOM     20  N2  UNL     1       0.970  -0.129   3.189  1.00  0.00     0.249 N   
ATOM     21  H11 UNL     1       1.527   0.459   3.812  1.00  0.00     0.199 HD  
ATOM     22  H12 UNL     1       0.984  -1.087   3.562  1.00  0.00     0.199 HD  
BRANCH  20  23
ATOM     23  C10 UNL     1      -0.450   0.344   3.253  1.00  0.00     0.164 C   
BRANCH  23  24
ATOM     24  C11 UNL     1      -0.649   1.723   2.691  1.00  0.00    -0.002 A   
ATOM     25  C12 UNL     1      -1.385   1.901   1.494  1.00  0.00     0.012 A   
ATOM     26  C16 UNL     1      -0.090   2.841   3.334  1.00  0.00     0.045 A   
ATOM     27  C13 UNL     1      -1.552   3.173   0.936  1.00  0.00     0.037 A   
ATOM     28  C15 UNL     1      -0.272   4.081   2.756  1.00  0.00     0.109 A   
ATOM     29  C14 UNL     1      -0.981   4.242   1.590  1.00  0.00     0.108 A   
ATOM     30  O2  UNL     1       0.209   5.255   3.240  1.00  0.00    -0.316 OA  
ATOM     31  O3  UNL     1      -1.038   5.540   1.195  1.00  0.00    -0.316 OA  
ATOM     32  C17 UNL     1      -0.306   6.187   2.260  1.00  0.00     0.337 C   
ENDBRANCH  23  24
ENDBRANCH  20  23
ENDBRANCH  19  20
BRANCH  19  33
ATOM     33  C18 UNL     1       3.080  -0.701   1.948  1.00  0.00     0.043 C   
ATOM     34  C19 UNL     1       3.916   0.150   2.928  1.00  0.00     0.010 C   
ATOM     35  C23 UNL     1       3.778  -0.732   0.567  1.00  0.00     0.010 C   
ATOM     36  C20 UNL     1       5.375  -0.296   2.999  1.00  0.00     0.001 C   
ATOM     37  C22 UNL     1       5.234  -1.180   0.655  1.00  0.00     0.001 C   
ATOM     38  C21 UNL     1       6.030  -0.320   1.625  1.00  0.00     0.000 C   
ENDBRANCH  19  33
ENDBRANCH   3  19
TORSDOF 9
