REMARK SMILES CC(C)[C@H]([NH2+]Cc1ccc2c(c1)OCO2)c1cn(-c2cccc([C@H](C)O)c2)nn1
REMARK SMILES IDX 16 1 17 2 18 3 28 4 29 5 4 6 2 7 1 8 3 9 5 10 6 13 7 14 8 15
REMARK SMILES IDX 12 16 9 17 11 18 10 19 13 20 15 21 14 22 19 23 20 24 27 25
REMARK SMILES IDX 21 26 23 27 22 28 24 29 25 30 26 31
REMARK H PARENT 5 11 5 12 26 32
ROOT
ATOM     1   C13 UNL     1       0.106   0.534  -1.182  1.00  0.00     0.127 A   
ATOM     2   C14 UNL     1       1.302   0.739  -0.532  1.00  0.00     0.135 A   
ATOM     3   N2  UNL     1       0.973   1.419   0.625  1.00  0.00    -0.181 N   
ATOM     4   N3  UNL     1      -0.379   1.559   0.675  1.00  0.00    -0.071 NA  
ATOM     5   N4  UNL     1      -0.910   1.029  -0.415  1.00  0.00    -0.131 NA  
ENDROOT
BRANCH   1   6
ATOM     6   C4  UNL     1      -0.206  -0.142  -2.477  1.00  0.00     0.117 C   
BRANCH   6   7
ATOM     7   C2  UNL     1      -0.208   0.809  -3.703  1.00  0.00     0.037 C   
ATOM     8   C1  UNL     1       1.186   1.387  -3.975  1.00  0.00     0.014 C   
ATOM     9   C3  UNL     1      -1.232   1.947  -3.614  1.00  0.00     0.014 C   
ENDBRANCH   6   7
BRANCH   6  10
ATOM     10  N1  UNL     1      -1.548  -0.826  -2.404  1.00  0.00     0.249 N   
ATOM     11  H9  UNL     1      -1.902  -1.046  -3.341  1.00  0.00     0.199 HD  
ATOM     12  H10 UNL     1      -2.213  -0.154  -1.992  1.00  0.00     0.199 HD  
BRANCH  10  13
ATOM     13  C5  UNL     1      -1.597  -2.059  -1.569  1.00  0.00     0.164 C   
BRANCH  13  14
ATOM     14  C6  UNL     1      -2.942  -2.719  -1.694  1.00  0.00    -0.002 A   
ATOM     15  C7  UNL     1      -3.160  -3.723  -2.669  1.00  0.00     0.012 A   
ATOM     16  C11 UNL     1      -4.011  -2.294  -0.884  1.00  0.00     0.045 A   
ATOM     17  C8  UNL     1      -4.424  -4.300  -2.833  1.00  0.00     0.037 A   
ATOM     18  C10 UNL     1      -5.245  -2.883  -1.073  1.00  0.00     0.109 A   
ATOM     19  C9  UNL     1      -5.446  -3.856  -2.021  1.00  0.00     0.108 A   
ATOM     20  O1  UNL     1      -6.377  -2.588  -0.384  1.00  0.00    -0.316 OA  
ATOM     21  O2  UNL     1      -6.731  -4.294  -2.049  1.00  0.00    -0.316 OA  
ATOM     22  C12 UNL     1      -7.319  -3.492  -1.002  1.00  0.00     0.337 C   
ENDBRANCH  13  14
ENDBRANCH  10  13
ENDBRANCH   6  10
ENDBRANCH   1   6
BRANCH   3  23
ATOM     23  C15 UNL     1       1.823   1.905   1.648  1.00  0.00     0.058 A   
ATOM     24  C16 UNL     1       1.275   2.605   2.732  1.00  0.00     0.026 A   
ATOM     25  C22 UNL     1       3.209   1.699   1.585  1.00  0.00     0.032 A   
ATOM     26  C17 UNL     1       2.107   3.083   3.745  1.00  0.00     0.002 A   
ATOM     27  C19 UNL     1       4.053   2.170   2.606  1.00  0.00    -0.018 A   
ATOM     28  C18 UNL     1       3.484   2.864   3.685  1.00  0.00     0.006 A   
BRANCH  27  29
ATOM     29  C20 UNL     1       5.554   1.974   2.543  1.00  0.00     0.141 C   
ATOM     30  C21 UNL     1       6.245   3.170   1.896  1.00  0.00     0.043 C   
BRANCH  29  31
ATOM     31  O3  UNL     1       5.860   0.798   1.790  1.00  0.00    -0.389 OA  
ATOM     32  H26 UNL     1       6.825   0.678   1.841  1.00  0.00     0.211 HD  
ENDBRANCH  29  31
ENDBRANCH  27  29
ENDBRANCH   3  23
TORSDOF 8
