REMARK SMILES CC(C)[C@H]([NH2+]Cc1ccc2c(c1)OCO2)c1cn(-c2cccc([C@@H](C)O)c2)nn1
REMARK SMILES IDX 16 1 17 2 18 3 28 4 29 5 4 6 2 7 1 8 3 9 5 10 6 13 7 14 8 15
REMARK SMILES IDX 12 16 9 17 11 18 10 19 13 20 15 21 14 22 19 23 20 24 27 25
REMARK SMILES IDX 21 26 23 27 22 28 24 29 25 30 26 31
REMARK H PARENT 5 11 5 12 26 32
ROOT
ATOM     1   C13 UNL     1       0.928  -1.081   0.772  1.00  0.00     0.127 A   
ATOM     2   C14 UNL     1       0.752  -1.256  -0.582  1.00  0.00     0.135 A   
ATOM     3   N2  UNL     1       1.051  -2.585  -0.816  1.00  0.00    -0.181 N   
ATOM     4   N3  UNL     1       1.368  -3.174   0.369  1.00  0.00    -0.071 NA  
ATOM     5   N4  UNL     1       1.305  -2.269   1.331  1.00  0.00    -0.131 NA  
ENDROOT
BRANCH   1   6
ATOM     6   C4  UNL     1       0.759   0.125   1.643  1.00  0.00     0.117 C   
BRANCH   6   7
ATOM     7   C2  UNL     1       1.953   1.108   1.521  1.00  0.00     0.037 C   
ATOM     8   C1  UNL     1       3.267   0.566   2.094  1.00  0.00     0.014 C   
ATOM     9   C3  UNL     1       1.633   2.468   2.153  1.00  0.00     0.014 C   
ENDBRANCH   6   7
BRANCH   6  10
ATOM     10  N1  UNL     1       0.572  -0.291   3.083  1.00  0.00     0.249 N   
ATOM     11  H9  UNL     1       1.254  -1.045   3.254  1.00  0.00     0.199 HD  
ATOM     12  H10 UNL     1       0.804   0.472   3.723  1.00  0.00     0.199 HD  
BRANCH  10  13
ATOM     13  C5  UNL     1      -0.775  -0.829   3.439  1.00  0.00     0.164 C   
BRANCH  13  14
ATOM     14  C6  UNL     1      -1.830   0.242   3.482  1.00  0.00    -0.002 A   
ATOM     15  C7  UNL     1      -2.828   0.304   2.480  1.00  0.00     0.012 A   
ATOM     16  C11 UNL     1      -1.818   1.207   4.505  1.00  0.00     0.045 A   
ATOM     17  C8  UNL     1      -3.796   1.315   2.490  1.00  0.00     0.037 A   
ATOM     18  C10 UNL     1      -2.785   2.189   4.484  1.00  0.00     0.109 A   
ATOM     19  C9  UNL     1      -3.746   2.244   3.505  1.00  0.00     0.108 A   
ATOM     20  O1  UNL     1      -2.911   3.193   5.391  1.00  0.00    -0.316 OA  
ATOM     21  O2  UNL     1      -4.599   3.286   3.674  1.00  0.00    -0.316 OA  
ATOM     22  C12 UNL     1      -4.084   3.873   4.888  1.00  0.00     0.337 C   
ENDBRANCH  13  14
ENDBRANCH  10  13
ENDBRANCH   6  10
ENDBRANCH   1   6
BRANCH   3  23
ATOM     23  C15 UNL     1       1.044  -3.303  -2.037  1.00  0.00     0.058 A   
ATOM     24  C16 UNL     1       1.397  -4.660  -2.045  1.00  0.00     0.026 A   
ATOM     25  C22 UNL     1       0.691  -2.673  -3.239  1.00  0.00     0.032 A   
ATOM     26  C17 UNL     1       1.399  -5.373  -3.243  1.00  0.00     0.002 A   
ATOM     27  C19 UNL     1       0.698  -3.383  -4.452  1.00  0.00    -0.018 A   
ATOM     28  C18 UNL     1       1.052  -4.741  -4.437  1.00  0.00     0.006 A   
BRANCH  27  29
ATOM     29  C20 UNL     1       0.312  -2.725  -5.762  1.00  0.00     0.141 C   
ATOM     30  C21 UNL     1      -1.143  -3.004  -6.120  1.00  0.00     0.043 C   
BRANCH  29  31
ATOM     31  O3  UNL     1       0.503  -1.312  -5.677  1.00  0.00    -0.389 OA  
ATOM     32  H26 UNL     1       0.365  -0.959  -6.573  1.00  0.00     0.211 HD  
ENDBRANCH  29  31
ENDBRANCH  27  29
ENDBRANCH   3  23
TORSDOF 8
