REMARK SMILES COc1ncc(Cn2cc([C@@H]([NH2+]Cc3ccc4c(c3)OCO4)C(C)C)nn2)cc1C
REMARK SMILES IDX 8 1 9 2 10 3 26 4 27 5 7 7 6 8 3 9 4 10 29 11 5 12 28 13
REMARK SMILES IDX 30 14 2 15 1 16 11 17 12 18 13 21 14 22 15 23 19 24 16 25
REMARK SMILES IDX 18 26 17 27 20 28 22 29 21 30 23 31 24 32 25 33
REMARK H PARENT 9 6 12 19 12 20
ROOT
ATOM     1   N2  UNL     1      -0.752   2.636  -2.154  1.00  0.00    -0.208 N   
ATOM     2   C6  UNL     1      -0.168   1.400  -2.216  1.00  0.00     0.046 A   
ATOM     3   C7  UNL     1      -1.232   0.528  -2.145  1.00  0.00     0.127 A   
ATOM     4   N4  UNL     1      -2.401   1.246  -2.098  1.00  0.00    -0.132 NA  
ATOM     5   N5  UNL     1      -2.094   2.533  -2.098  1.00  0.00    -0.076 NA  
ATOM     6   H7  UNL     1       0.906   1.264  -2.233  1.00  0.00     0.083 HD  
ENDROOT
BRANCH   1   7
ATOM     7   C5  UNL     1      -0.101   3.924  -1.973  1.00  0.00     0.171 C   
BRANCH   7   8
ATOM     8   C4  UNL     1       0.481   4.017  -0.589  1.00  0.00    -0.010 A   
ATOM     9   C2  UNL     1       1.446   4.079   1.982  1.00  0.00     0.169 A   
ATOM     10  N1  UNL     1       0.107   4.019   1.805  1.00  0.00    -0.232 NA  
ATOM     11  C21 UNL     1       2.365   4.106   0.933  1.00  0.00    -0.001 A   
ATOM     12  C3  UNL     1      -0.344   4.016   0.533  1.00  0.00     0.119 A   
ATOM     13  C20 UNL     1       1.861   4.068  -0.372  1.00  0.00     0.014 A   
ATOM     14  C22 UNL     1       3.840   4.171   1.190  1.00  0.00     0.049 C   
BRANCH   9  15
ATOM     15  O1  UNL     1       1.954   4.089   3.267  1.00  0.00    -0.332 OA  
ATOM     16  C1  UNL     1       0.954   4.182   4.276  1.00  0.00     0.205 C   
ENDBRANCH   9  15
ENDBRANCH   7   8
ENDBRANCH   1   7
BRANCH   3  17
ATOM     17  C8  UNL     1      -1.269  -0.959  -2.005  1.00  0.00     0.117 C   
BRANCH  17  18
ATOM     18  N3  UNL     1      -2.388  -1.379  -1.078  1.00  0.00     0.249 N   
ATOM     19  H9  UNL     1      -3.247  -0.946  -1.443  1.00  0.00     0.199 HD  
ATOM     20  H10 UNL     1      -2.519  -2.393  -1.107  1.00  0.00     0.199 HD  
BRANCH  18  21
ATOM     21  C9  UNL     1      -2.264  -0.945   0.350  1.00  0.00     0.164 C   
BRANCH  21  22
ATOM     22  C10 UNL     1      -1.041  -1.486   1.037  1.00  0.00    -0.002 A   
ATOM     23  C11 UNL     1      -0.012  -0.607   1.456  1.00  0.00     0.012 A   
ATOM     24  C15 UNL     1      -0.899  -2.869   1.252  1.00  0.00     0.045 A   
ATOM     25  C12 UNL     1       1.146  -1.096   2.072  1.00  0.00     0.037 A   
ATOM     26  C14 UNL     1       0.257  -3.317   1.857  1.00  0.00     0.109 A   
ATOM     27  C13 UNL     1       1.250  -2.457   2.256  1.00  0.00     0.108 A   
ATOM     28  O2  UNL     1       0.555  -4.617   2.121  1.00  0.00    -0.316 OA  
ATOM     29  O3  UNL     1       2.297  -3.105   2.830  1.00  0.00    -0.316 OA  
ATOM     30  C16 UNL     1       1.844  -4.476   2.764  1.00  0.00     0.337 C   
ENDBRANCH  21  22
ENDBRANCH  18  21
ENDBRANCH  17  18
BRANCH  17  31
ATOM     31  C17 UNL     1      -1.399  -1.681  -3.372  1.00  0.00     0.037 C   
ATOM     32  C18 UNL     1      -1.085  -3.178  -3.250  1.00  0.00     0.014 C   
ATOM     33  C19 UNL     1      -2.759  -1.498  -4.056  1.00  0.00     0.014 C   
ENDBRANCH  17  31
ENDBRANCH   3  17
TORSDOF 8
