REMARK SMILES Cc1ccc(Cn2cc([C@@H]([NH2+]Cc3ccc4c(c3)OCO4)C(C)C)nn2)s1
REMARK SMILES IDX 7 1 8 2 9 3 25 4 26 5 6 7 5 8 2 9 3 10 27 11 4 12 1 13 10 14
REMARK SMILES IDX 11 15 12 18 13 19 14 20 18 21 15 22 17 23 16 24 19 25 21 26
REMARK SMILES IDX 20 27 22 28 23 29 24 30
REMARK H PARENT 8 6 11 16 11 17
ROOT
ATOM     1   N1  UNL     1       0.205   1.180   2.449  1.00  0.00    -0.207 N   
ATOM     2   C7  UNL     1      -0.305  -0.074   2.668  1.00  0.00     0.046 A   
ATOM     3   C8  UNL     1       0.344  -0.862   1.743  1.00  0.00     0.127 A   
ATOM     4   N3  UNL     1       1.213  -0.085   1.017  1.00  0.00    -0.132 NA  
ATOM     5   N4  UNL     1       1.120   1.158   1.459  1.00  0.00    -0.076 NA  
ATOM     6   H8  UNL     1      -1.056  -0.270   3.422  1.00  0.00     0.083 HD  
ENDROOT
BRANCH   1   7
ATOM     7   C6  UNL     1      -0.095   2.415   3.160  1.00  0.00     0.176 C   
BRANCH   7   8
ATOM     8   C5  UNL     1      -1.522   2.823   2.958  1.00  0.00     0.009 A   
ATOM     9   C2  UNL     1      -3.628   3.704   2.014  1.00  0.00    -0.014 A   
ATOM     10  C3  UNL     1      -3.784   3.257   3.309  1.00  0.00     0.011 A   
ATOM     11  S1  UNL     1      -2.022   3.503   1.466  1.00  0.00    -0.098 S   
ATOM     12  C4  UNL     1      -2.569   2.750   3.856  1.00  0.00     0.013 A   
ATOM     13  C1  UNL     1      -4.650   4.315   1.116  1.00  0.00     0.052 C   
ENDBRANCH   7   8
ENDBRANCH   1   7
BRANCH   3  14
ATOM     14  C9  UNL     1       0.225  -2.320   1.426  1.00  0.00     0.117 C   
BRANCH  14  15
ATOM     15  N2  UNL     1       0.634  -2.576   0.000  1.00  0.00     0.249 N   
ATOM     16  H10 UNL     1       0.902  -3.550  -0.162  1.00  0.00     0.199 HD  
ATOM     17  H11 UNL     1       1.483  -2.015  -0.167  1.00  0.00     0.199 HD  
BRANCH  15  18
ATOM     18  C10 UNL     1      -0.363  -2.167  -1.029  1.00  0.00     0.164 C   
BRANCH  18  19
ATOM     19  C11 UNL     1       0.213  -2.328  -2.407  1.00  0.00    -0.002 A   
ATOM     20  C12 UNL     1       0.956  -1.274  -2.991  1.00  0.00     0.012 A   
ATOM     21  C16 UNL     1       0.077  -3.545  -3.096  1.00  0.00     0.045 A   
ATOM     22  C13 UNL     1       1.541  -1.421  -4.254  1.00  0.00     0.037 A   
ATOM     23  C15 UNL     1       0.666  -3.656  -4.339  1.00  0.00     0.109 A   
ATOM     24  C14 UNL     1       1.378  -2.625  -4.902  1.00  0.00     0.108 A   
ATOM     25  O1  UNL     1       0.630  -4.759  -5.134  1.00  0.00    -0.316 OA  
ATOM     26  O2  UNL     1       1.876  -2.946  -6.124  1.00  0.00    -0.316 OA  
ATOM     27  C17 UNL     1       1.387  -4.295  -6.277  1.00  0.00     0.337 C   
ENDBRANCH  18  19
ENDBRANCH  15  18
ENDBRANCH  14  15
BRANCH  14  28
ATOM     28  C18 UNL     1       1.066  -3.196   2.392  1.00  0.00     0.037 C   
ATOM     29  C19 UNL     1       2.582  -3.024   2.226  1.00  0.00     0.014 C   
ATOM     30  C20 UNL     1       0.699  -4.679   2.279  1.00  0.00     0.014 C   
ENDBRANCH  14  28
ENDBRANCH   3  14
TORSDOF 7
