REMARK SMILES CC(C)[C@H]([NH2+]Cc1ccc2c(c1)OCO2)c1cn(C[C@H](C)c2ccccn2)nn1
REMARK SMILES IDX 16 1 17 2 18 3 28 4 29 5 4 7 2 8 1 9 3 10 5 11 6 14 7 15
REMARK SMILES IDX 8 16 12 17 9 18 11 19 10 20 13 21 15 22 14 23 19 24 20 25
REMARK SMILES IDX 21 26 22 27 23 28 27 29 24 30 26 31 25 32
REMARK H PARENT 17 6 5 12 5 13
ROOT
ATOM     1   C13 UNL     1       0.490   0.067   0.179  1.00  0.00     0.127 A   
ATOM     2   C14 UNL     1      -0.236   0.464  -0.920  1.00  0.00     0.045 A   
ATOM     3   N2  UNL     1       0.711   0.923  -1.792  1.00  0.00    -0.211 N   
ATOM     4   N4  UNL     1       1.951   0.692  -1.314  1.00  0.00    -0.076 NA  
ATOM     5   N5  UNL     1       1.828   0.206  -0.091  1.00  0.00    -0.132 NA  
ATOM     6   H18 UNL     1      -1.294   0.524  -1.135  1.00  0.00     0.083 HD  
ENDROOT
BRANCH   1   7
ATOM     7   C4  UNL     1       0.055  -0.453   1.510  1.00  0.00     0.117 C   
BRANCH   7   8
ATOM     8   C2  UNL     1      -0.517   0.669   2.417  1.00  0.00     0.037 C   
ATOM     9   C1  UNL     1       0.525   1.702   2.862  1.00  0.00     0.014 C   
ATOM     10  C3  UNL     1      -1.236   0.094   3.644  1.00  0.00     0.014 C   
ENDBRANCH   7   8
BRANCH   7  11
ATOM     11  N1  UNL     1       1.210  -1.142   2.200  1.00  0.00     0.249 N   
ATOM     12  H9  UNL     1       1.083  -1.161   3.214  1.00  0.00     0.199 HD  
ATOM     13  H10 UNL     1       2.035  -0.554   2.008  1.00  0.00     0.199 HD  
BRANCH  11  14
ATOM     14  C5  UNL     1       1.531  -2.516   1.716  1.00  0.00     0.164 C   
BRANCH  14  15
ATOM     15  C6  UNL     1       0.538  -3.538   2.198  1.00  0.00    -0.002 A   
ATOM     16  C7  UNL     1       0.545  -3.960   3.550  1.00  0.00     0.012 A   
ATOM     17  C11 UNL     1      -0.426  -4.058   1.317  1.00  0.00     0.045 A   
ATOM     18  C8  UNL     1      -0.397  -4.882   4.020  1.00  0.00     0.037 A   
ATOM     19  C10 UNL     1      -1.341  -4.963   1.813  1.00  0.00     0.109 A   
ATOM     20  C9  UNL     1      -1.328  -5.363   3.127  1.00  0.00     0.108 A   
ATOM     21  O1  UNL     1      -2.338  -5.550   1.101  1.00  0.00    -0.316 OA  
ATOM     22  O2  UNL     1      -2.313  -6.255   3.407  1.00  0.00    -0.316 OA  
ATOM     23  C12 UNL     1      -2.937  -6.394   2.111  1.00  0.00     0.337 C   
ENDBRANCH  14  15
ENDBRANCH  11  14
ENDBRANCH   7  11
ENDBRANCH   1   7
BRANCH   3  24
ATOM     24  C15 UNL     1       0.525   1.467  -3.120  1.00  0.00     0.143 C   
BRANCH  24  25
ATOM     25  C16 UNL     1       0.537   3.003  -3.235  1.00  0.00     0.054 C   
ATOM     26  C17 UNL     1       1.726   3.666  -2.537  1.00  0.00     0.016 C   
BRANCH  25  27
ATOM     27  C18 UNL     1      -0.764   3.634  -2.778  1.00  0.00     0.045 A   
ATOM     28  C19 UNL     1      -1.423   4.546  -3.603  1.00  0.00     0.024 A   
ATOM     29  N3  UNL     1      -1.230   3.310  -1.546  1.00  0.00    -0.261 NA  
ATOM     30  C20 UNL     1      -2.598   5.141  -3.154  1.00  0.00     0.003 A   
ATOM     31  C22 UNL     1      -2.369   3.914  -1.133  1.00  0.00     0.111 A   
ATOM     32  C21 UNL     1      -3.083   4.822  -1.894  1.00  0.00     0.020 A   
ENDBRANCH  25  27
ENDBRANCH  24  25
ENDBRANCH   3  24
TORSDOF 8
