REMARK SMILES CC(C)[C@H]([NH2+]Cc1ccc2c(c1)OCO2)c1cn(C[C@@H](C)c2ccccn2)nn1
REMARK SMILES IDX 16 1 17 2 18 3 28 4 29 5 4 7 2 8 1 9 3 10 5 11 6 14 7 15
REMARK SMILES IDX 8 16 12 17 9 18 11 19 10 20 13 21 15 22 14 23 19 24 20 25
REMARK SMILES IDX 21 26 22 27 23 28 27 29 24 30 26 31 25 32
REMARK H PARENT 17 6 5 12 5 13
ROOT
ATOM     1   C13 UNL     1      -2.624   0.559  -0.762  1.00  0.00     0.127 A   
ATOM     2   C14 UNL     1      -2.058   1.588  -0.046  1.00  0.00     0.045 A   
ATOM     3   N2  UNL     1      -3.038   1.953   0.832  1.00  0.00    -0.211 N   
ATOM     4   N4  UNL     1      -4.172   1.263   0.602  1.00  0.00    -0.076 NA  
ATOM     5   N5  UNL     1      -3.928   0.397  -0.367  1.00  0.00    -0.132 NA  
ATOM     6   H18 UNL     1      -1.072   2.031  -0.028  1.00  0.00     0.083 HD  
ENDROOT
BRANCH   1   7
ATOM     7   C4  UNL     1      -2.035  -0.375  -1.766  1.00  0.00     0.117 C   
BRANCH   7   8
ATOM     8   C2  UNL     1      -2.108   0.183  -3.212  1.00  0.00     0.037 C   
ATOM     9   C1  UNL     1      -3.533   0.303  -3.766  1.00  0.00     0.014 C   
ATOM     10  C3  UNL     1      -1.247  -0.640  -4.179  1.00  0.00     0.014 C   
ENDBRANCH   7   8
BRANCH   7  11
ATOM     11  N1  UNL     1      -2.722  -1.721  -1.688  1.00  0.00     0.249 N   
ATOM     12  H9  UNL     1      -2.521  -2.288  -2.514  1.00  0.00     0.199 HD  
ATOM     13  H10 UNL     1      -3.732  -1.521  -1.689  1.00  0.00     0.199 HD  
BRANCH  11  14
ATOM     14  C5  UNL     1      -2.448  -2.524  -0.457  1.00  0.00     0.164 C   
BRANCH  14  15
ATOM     15  C6  UNL     1      -1.010  -2.944  -0.328  1.00  0.00    -0.002 A   
ATOM     16  C7  UNL     1      -0.423  -3.820  -1.274  1.00  0.00     0.012 A   
ATOM     17  C11 UNL     1      -0.231  -2.452   0.736  1.00  0.00     0.045 A   
ATOM     18  C8  UNL     1       0.921  -4.192  -1.171  1.00  0.00     0.037 A   
ATOM     19  C10 UNL     1       1.090  -2.843   0.811  1.00  0.00     0.109 A   
ATOM     20  C9  UNL     1       1.651  -3.686  -0.118  1.00  0.00     0.108 A   
ATOM     21  O1  UNL     1       1.975  -2.468   1.771  1.00  0.00    -0.316 OA  
ATOM     22  O2  UNL     1       2.959  -3.943   0.138  1.00  0.00    -0.316 OA  
ATOM     23  C12 UNL     1       3.148  -3.210   1.367  1.00  0.00     0.337 C   
ENDBRANCH  14  15
ENDBRANCH  11  14
ENDBRANCH   7  11
ENDBRANCH   1   7
BRANCH   3  24
ATOM     24  C15 UNL     1      -2.990   2.961   1.868  1.00  0.00     0.143 C   
BRANCH  24  25
ATOM     25  C16 UNL     1      -2.480   2.481   3.237  1.00  0.00     0.054 C   
ATOM     26  C17 UNL     1      -3.209   1.241   3.762  1.00  0.00     0.016 C   
BRANCH  25  27
ATOM     27  C18 UNL     1      -0.975   2.285   3.236  1.00  0.00     0.045 A   
ATOM     28  C19 UNL     1      -0.152   3.239   3.837  1.00  0.00     0.024 A   
ATOM     29  N3  UNL     1      -0.474   1.185   2.618  1.00  0.00    -0.261 NA  
ATOM     30  C20 UNL     1       1.226   3.049   3.824  1.00  0.00     0.003 A   
ATOM     31  C22 UNL     1       0.870   1.023   2.638  1.00  0.00     0.111 A   
ATOM     32  C21 UNL     1       1.751   1.918   3.217  1.00  0.00     0.020 A   
ENDBRANCH  25  27
ENDBRANCH  24  25
ENDBRANCH   3  24
TORSDOF 8
