REMARK SMILES CC(C)C[C@H]([NH2+]Cc1ccc2c(c1)OCO2)c1cn(-c2cccc(S(C)(=O)=O)c2)nn1
REMARK SMILES IDX 17 1 18 2 19 3 30 4 31 5 5 6 4 7 2 8 1 9 3 10 6 11 7 14 8 15
REMARK SMILES IDX 9 16 13 17 10 18 12 19 11 20 14 21 16 22 15 23 20 24 21 25
REMARK SMILES IDX 29 26 22 27 24 28 23 29 25 30 26 31 27 32 28 33
REMARK H PARENT 6 12 6 13
ROOT
ATOM     1   C14 UNL     1      -2.163   0.339  -0.028  1.00  0.00     0.127 A   
ATOM     2   C15 UNL     1      -0.830   0.191  -0.338  1.00  0.00     0.135 A   
ATOM     3   N2  UNL     1      -0.177   1.117   0.451  1.00  0.00    -0.180 N   
ATOM     4   N3  UNL     1      -1.103   1.850   1.123  1.00  0.00    -0.071 NA  
ATOM     5   N4  UNL     1      -2.306   1.367   0.859  1.00  0.00    -0.131 NA  
ENDROOT
BRANCH   1   6
ATOM     6   C5  UNL     1      -3.355  -0.480  -0.398  1.00  0.00     0.114 C   
BRANCH   6   7
ATOM     7   C4  UNL     1      -4.348   0.291  -1.288  1.00  0.00     0.064 C   
BRANCH   7   8
ATOM     8   C2  UNL     1      -3.788   0.739  -2.655  1.00  0.00    -0.012 C   
ATOM     9   C1  UNL     1      -3.335  -0.442  -3.515  1.00  0.00     0.007 C   
ATOM     10  C3  UNL     1      -4.848   1.548  -3.407  1.00  0.00     0.007 C   
ENDBRANCH   7   8
ENDBRANCH   6   7
BRANCH   6  11
ATOM     11  N1  UNL     1      -4.096  -0.876   0.869  1.00  0.00     0.249 N   
ATOM     12  H11 UNL     1      -5.105  -0.907   0.696  1.00  0.00     0.199 HD  
ATOM     13  H12 UNL     1      -3.949  -0.106   1.540  1.00  0.00     0.199 HD  
BRANCH  11  14
ATOM     14  C6  UNL     1      -3.683  -2.159   1.514  1.00  0.00     0.164 C   
BRANCH  14  15
ATOM     15  C7  UNL     1      -2.239  -2.211   1.926  1.00  0.00    -0.002 A   
ATOM     16  C8  UNL     1      -1.771  -1.430   3.011  1.00  0.00     0.012 A   
ATOM     17  C12 UNL     1      -1.327  -3.000   1.202  1.00  0.00     0.045 A   
ATOM     18  C9  UNL     1      -0.414  -1.414   3.354  1.00  0.00     0.037 A   
ATOM     19  C11 UNL     1       0.004  -2.959   1.565  1.00  0.00     0.109 A   
ATOM     20  C10 UNL     1       0.449  -2.186   2.608  1.00  0.00     0.108 A   
ATOM     21  O1  UNL     1       1.011  -3.631   0.951  1.00  0.00    -0.316 OA  
ATOM     22  O2  UNL     1       1.793  -2.275   2.781  1.00  0.00    -0.316 OA  
ATOM     23  C13 UNL     1       2.143  -3.235   1.760  1.00  0.00     0.337 C   
ENDBRANCH  14  15
ENDBRANCH  11  14
ENDBRANCH   6  11
ENDBRANCH   1   6
BRANCH   3  24
ATOM     24  C16 UNL     1       1.215   1.296   0.649  1.00  0.00     0.069 A   
ATOM     25  C17 UNL     1       1.671   2.305   1.513  1.00  0.00     0.027 A   
ATOM     26  C22 UNL     1       2.141   0.447   0.030  1.00  0.00     0.160 A   
ATOM     27  C18 UNL     1       3.038   2.450   1.771  1.00  0.00     0.014 A   
ATOM     28  C20 UNL     1       3.506   0.604   0.299  1.00  0.00     0.308 A   
ATOM     29  C19 UNL     1       3.960   1.592   1.174  1.00  0.00     0.134 A   
BRANCH  28  30
ATOM     30  S1  UNL     1       4.676  -0.525  -0.424  1.00  0.00    -0.239 S   
ATOM     31  C21 UNL     1       5.697   0.497  -1.453  1.00  0.00     0.674 C   
ATOM     32  O3  UNL     1       3.921  -1.416  -1.287  1.00  0.00    -0.517 OA  
ATOM     33  O4  UNL     1       5.471  -1.051   0.666  1.00  0.00    -0.517 OA  
ENDBRANCH  28  30
ENDBRANCH   3  24
TORSDOF 8
