REMARK SMILES CC(C)(C)[C@H]([NH2+]Cc1ccc2c(c1)OCO2)c1cn(CCc2ncccc2F)nn1
REMARK SMILES IDX 17 1 18 2 19 3 29 4 30 5 5 7 2 8 1 9 3 10 4 11 6 12 7 15
REMARK SMILES IDX 8 16 9 17 13 18 10 19 12 20 11 21 14 22 16 23 15 24 20 25
REMARK SMILES IDX 21 26 22 27 23 28 27 29 24 30 26 31 25 32 28 33
REMARK H PARENT 18 6 6 13 6 14
ROOT
ATOM     1   C14 UNL     1       0.056   1.271   0.167  1.00  0.00     0.127 A   
ATOM     2   C15 UNL     1      -0.654   2.397   0.515  1.00  0.00     0.045 A   
ATOM     3   N2  UNL     1      -0.886   2.240   1.852  1.00  0.00    -0.212 N   
ATOM     4   N4  UNL     1      -0.275   1.136   2.319  1.00  0.00    -0.076 NA  
ATOM     5   N5  UNL     1       0.292   0.523   1.293  1.00  0.00    -0.132 NA  
ATOM     6   H20 UNL     1      -1.044   3.239  -0.041  1.00  0.00     0.083 HD  
ENDROOT
BRANCH   1   7
ATOM     7   C5  UNL     1       0.612   0.815  -1.148  1.00  0.00     0.120 C   
BRANCH   7   8
ATOM     8   C2  UNL     1      -0.376  -0.069  -1.989  1.00  0.00     0.010 C   
ATOM     9   C1  UNL     1      -1.705   0.686  -2.225  1.00  0.00     0.017 C   
ATOM     10  C3  UNL     1      -0.699  -1.413  -1.305  1.00  0.00     0.017 C   
ATOM     11  C4  UNL     1       0.225  -0.365  -3.383  1.00  0.00     0.017 C   
ENDBRANCH   7   8
BRANCH   7  12
ATOM     12  N1  UNL     1       1.898   0.065  -0.890  1.00  0.00     0.250 N   
ATOM     13  H11 UNL     1       1.715  -0.556  -0.086  1.00  0.00     0.199 HD  
ATOM     14  H12 UNL     1       2.164  -0.546  -1.665  1.00  0.00     0.199 HD  
BRANCH  12  15
ATOM     15  C6  UNL     1       3.067   0.913  -0.524  1.00  0.00     0.164 C   
BRANCH  15  16
ATOM     16  C7  UNL     1       4.259   0.055  -0.208  1.00  0.00    -0.002 A   
ATOM     17  C8  UNL     1       5.217  -0.241  -1.206  1.00  0.00     0.012 A   
ATOM     18  C12 UNL     1       4.398  -0.503   1.075  1.00  0.00     0.045 A   
ATOM     19  C9  UNL     1       6.308  -1.072  -0.928  1.00  0.00     0.037 A   
ATOM     20  C11 UNL     1       5.484  -1.319   1.314  1.00  0.00     0.109 A   
ATOM     21  C10 UNL     1       6.413  -1.595   0.342  1.00  0.00     0.108 A   
ATOM     22  O1  UNL     1       5.766  -1.934   2.492  1.00  0.00    -0.316 OA  
ATOM     23  O2  UNL     1       7.398  -2.418   0.785  1.00  0.00    -0.316 OA  
ATOM     24  C13 UNL     1       6.997  -2.615   2.158  1.00  0.00     0.337 C   
ENDBRANCH  15  16
ENDBRANCH  12  15
ENDBRANCH   7  12
ENDBRANCH   1   7
BRANCH   3  25
ATOM     25  C16 UNL     1      -1.644   3.096   2.741  1.00  0.00     0.140 C   
BRANCH  25  26
ATOM     26  C17 UNL     1      -3.001   2.506   3.116  1.00  0.00     0.081 C   
BRANCH  26  27
ATOM     27  C18 UNL     1      -3.986   2.425   1.975  1.00  0.00     0.078 A   
ATOM     28  N3  UNL     1      -3.791   3.224   0.891  1.00  0.00    -0.258 NA  
ATOM     29  C22 UNL     1      -5.096   1.591   2.090  1.00  0.00     0.144 A   
ATOM     30  C19 UNL     1      -4.731   3.180  -0.085  1.00  0.00     0.111 A   
ATOM     31  C21 UNL     1      -6.036   1.555   1.070  1.00  0.00     0.043 A   
ATOM     32  C20 UNL     1      -5.853   2.368  -0.043  1.00  0.00     0.023 A   
ATOM     33  F1  UNL     1      -5.270   0.827   3.177  1.00  0.00    -0.205 F   
ENDBRANCH  26  27
ENDBRANCH  25  26
ENDBRANCH   3  25
TORSDOF 8
