REMARK SMILES CC(C)[C@H]([NH2+]Cc1ccc2c(c1)OCO2)c1cn(Cc2scnc2C2CC2)nn1
REMARK SMILES IDX 16 1 17 2 18 3 28 4 29 5 4 7 2 8 1 9 3 10 5 11 6 14 7 15
REMARK SMILES IDX 8 16 12 17 9 18 11 19 10 20 13 21 15 22 14 23 19 24 20 25
REMARK SMILES IDX 21 26 24 27 22 28 23 29 25 30 26 31 27 32
REMARK H PARENT 17 6 5 12 5 13
ROOT
ATOM     1   C13 UNL     1       1.345   1.994   0.438  1.00  0.00     0.127 A   
ATOM     2   C14 UNL     1       2.361   1.063   0.444  1.00  0.00     0.046 A   
ATOM     3   N2  UNL     1       1.994   0.190   1.433  1.00  0.00    -0.207 N   
ATOM     4   N4  UNL     1       0.864   0.602   2.045  1.00  0.00    -0.076 NA  
ATOM     5   N5  UNL     1       0.443   1.690   1.426  1.00  0.00    -0.132 NA  
ATOM     6   H18 UNL     1       3.244   0.914  -0.166  1.00  0.00     0.083 HD  
ENDROOT
BRANCH   1   7
ATOM     7   C4  UNL     1       1.077   3.171  -0.444  1.00  0.00     0.117 C   
BRANCH   7   8
ATOM     8   C2  UNL     1       1.817   4.450   0.026  1.00  0.00     0.037 C   
ATOM     9   C1  UNL     1       1.699   5.581  -1.001  1.00  0.00     0.014 C   
ATOM     10  C3  UNL     1       1.390   4.959   1.410  1.00  0.00     0.014 C   
ENDBRANCH   7   8
BRANCH   7  11
ATOM     11  N1  UNL     1      -0.415   3.403  -0.522  1.00  0.00     0.249 N   
ATOM     12  H9  UNL     1      -0.658   4.372  -0.297  1.00  0.00     0.199 HD  
ATOM     13  H10 UNL     1      -0.826   2.841   0.243  1.00  0.00     0.199 HD  
BRANCH  11  14
ATOM     14  C5  UNL     1      -1.083   3.005  -1.791  1.00  0.00     0.164 C   
BRANCH  14  15
ATOM     15  C6  UNL     1      -0.949   1.546  -2.129  1.00  0.00    -0.002 A   
ATOM     16  C7  UNL     1      -0.119   1.139  -3.201  1.00  0.00     0.012 A   
ATOM     17  C11 UNL     1      -1.640   0.575  -1.384  1.00  0.00     0.045 A   
ATOM     18  C8  UNL     1       0.023  -0.215  -3.527  1.00  0.00     0.037 A   
ATOM     19  C10 UNL     1      -1.485  -0.750  -1.738  1.00  0.00     0.109 A   
ATOM     20  C9  UNL     1      -0.673  -1.134  -2.777  1.00  0.00     0.108 A   
ATOM     21  O1  UNL     1      -2.101  -1.803  -1.143  1.00  0.00    -0.316 OA  
ATOM     22  O2  UNL     1      -0.668  -2.479  -2.961  1.00  0.00    -0.316 OA  
ATOM     23  C12 UNL     1      -1.590  -2.902  -1.930  1.00  0.00     0.337 C   
ENDBRANCH  14  15
ENDBRANCH  11  14
ENDBRANCH   7  11
ENDBRANCH   1   7
BRANCH   3  24
ATOM     24  C15 UNL     1       2.673  -1.022   1.863  1.00  0.00     0.178 C   
BRANCH  24  25
ATOM     25  C16 UNL     1       2.243  -2.180   1.030  1.00  0.00     0.032 A   
ATOM     26  S1  UNL     1       3.090  -2.598  -0.411  1.00  0.00    -0.079 S   
ATOM     27  C18 UNL     1       1.198  -3.065   1.214  1.00  0.00     0.056 A   
ATOM     28  C17 UNL     1       2.004  -3.905  -0.649  1.00  0.00     0.157 A   
ATOM     29  N3  UNL     1       1.059  -4.044   0.257  1.00  0.00    -0.253 NA  
BRANCH  27  30
ATOM     30  C19 UNL     1       0.230  -3.009   2.434  1.00  0.00     0.039 C   
ATOM     31  C20 UNL     1      -0.961  -2.087   2.382  1.00  0.00     0.011 C   
ATOM     32  C21 UNL     1      -1.164  -3.569   2.298  1.00  0.00     0.011 C   
ENDBRANCH  27  30
ENDBRANCH  24  25
ENDBRANCH   3  24
TORSDOF 8
