REMARK SMILES COc1ncccc1Cn1cc([C@@H]([NH2+]Cc2ccc3c(c2)OCO3)C(C)(C)C)nn1
REMARK SMILES IDX 10 1 11 2 12 3 29 4 30 5 9 7 8 8 3 9 4 10 5 11 7 12 6 13
REMARK SMILES IDX 2 14 1 15 13 16 14 17 15 20 16 21 17 22 21 23 18 24 20 25
REMARK SMILES IDX 19 26 22 27 24 28 23 29 25 30 26 31 27 32 28 33
REMARK H PARENT 11 6 14 18 14 19
ROOT
ATOM     1   N2  UNL     1      -1.421  -0.455  -1.903  1.00  0.00    -0.208 N   
ATOM     2   C8  UNL     1      -0.566   0.533  -1.502  1.00  0.00     0.046 A   
ATOM     3   C9  UNL     1       0.621  -0.126  -1.272  1.00  0.00     0.127 A   
ATOM     4   N4  UNL     1       0.462  -1.456  -1.566  1.00  0.00    -0.132 NA  
ATOM     5   N5  UNL     1      -0.787  -1.643  -1.960  1.00  0.00    -0.076 NA  
ATOM     6   H9  UNL     1      -0.885   1.558  -1.373  1.00  0.00     0.083 HD  
ENDROOT
BRANCH   1   7
ATOM     7   C7  UNL     1      -2.841  -0.352  -2.196  1.00  0.00     0.174 C   
BRANCH   7   8
ATOM     8   C6  UNL     1      -3.665  -0.808  -1.025  1.00  0.00     0.021 A   
ATOM     9   C2  UNL     1      -3.852  -0.005   0.099  1.00  0.00     0.171 A   
ATOM     10  N1  UNL     1      -4.548  -0.390   1.190  1.00  0.00    -0.233 NA  
ATOM     11  C3  UNL     1      -5.110  -1.617   1.160  1.00  0.00     0.114 A   
ATOM     12  C5  UNL     1      -4.251  -2.079  -1.012  1.00  0.00     0.011 A   
ATOM     13  C4  UNL     1      -4.990  -2.489   0.093  1.00  0.00     0.021 A   
BRANCH   9  14
ATOM     14  O1  UNL     1      -3.254   1.241   0.095  1.00  0.00    -0.332 OA  
ATOM     15  C1  UNL     1      -3.675   2.064   1.183  1.00  0.00     0.205 C   
ENDBRANCH   9  14
ENDBRANCH   7   8
ENDBRANCH   1   7
BRANCH   3  16
ATOM     16  C10 UNL     1       1.907   0.354  -0.676  1.00  0.00     0.120 C   
BRANCH  16  17
ATOM     17  N3  UNL     1       2.388  -0.662   0.343  1.00  0.00     0.250 N   
ATOM     18  H11 UNL     1       2.426  -1.566  -0.147  1.00  0.00     0.199 HD  
ATOM     19  H12 UNL     1       3.333  -0.443   0.661  1.00  0.00     0.199 HD  
BRANCH  17  20
ATOM     20  C11 UNL     1       1.516  -0.865   1.544  1.00  0.00     0.164 C   
BRANCH  20  21
ATOM     21  C12 UNL     1       1.379   0.371   2.389  1.00  0.00    -0.002 A   
ATOM     22  C13 UNL     1       2.468   0.838   3.164  1.00  0.00     0.012 A   
ATOM     23  C17 UNL     1       0.171   1.092   2.387  1.00  0.00     0.045 A   
ATOM     24  C14 UNL     1       2.360   2.010   3.920  1.00  0.00     0.037 A   
ATOM     25  C16 UNL     1       0.100   2.245   3.140  1.00  0.00     0.109 A   
ATOM     26  C15 UNL     1       1.163   2.691   3.885  1.00  0.00     0.108 A   
ATOM     27  O2  UNL     1      -0.982   3.062   3.238  1.00  0.00    -0.316 OA  
ATOM     28  O3  UNL     1       0.884   3.843   4.549  1.00  0.00    -0.316 OA  
ATOM     29  C18 UNL     1      -0.491   4.056   4.166  1.00  0.00     0.337 C   
ENDBRANCH  20  21
ENDBRANCH  17  20
ENDBRANCH  16  17
BRANCH  16  30
ATOM     30  C19 UNL     1       3.033   0.655  -1.726  1.00  0.00     0.010 C   
ATOM     31  C20 UNL     1       4.263   1.283  -1.029  1.00  0.00     0.017 C   
ATOM     32  C21 UNL     1       3.503  -0.602  -2.485  1.00  0.00     0.017 C   
ATOM     33  C22 UNL     1       2.527   1.686  -2.761  1.00  0.00     0.017 C   
ENDBRANCH  16  30
ENDBRANCH   3  16
TORSDOF 8
