REMARK SMILES OC[C@@H](c1ccc(Cl)cn1)n1cc([C@@H]([NH2+]Cc2ccc3c(c2)OCO3)C2CCCC2)nn1
REMARK SMILES IDX 11 1 12 2 13 3 31 4 32 5 3 7 2 8 1 9 4 11 5 12 10 13 6 14
REMARK SMILES IDX 9 15 7 16 8 17 14 18 15 19 16 22 17 23 18 24 22 25 19 26
REMARK SMILES IDX 21 27 20 28 23 29 25 30 24 31 26 32 27 33 30 34 28 35 29 36
REMARK H PARENT 12 6 1 10 15 20 15 21
ROOT
ATOM     1   N2  UNL     1      -0.099  -0.329   2.612  1.00  0.00    -0.201 N   
ATOM     2   C8  UNL     1       0.162  -0.357   1.268  1.00  0.00     0.046 A   
ATOM     3   C9  UNL     1      -0.713   0.562   0.737  1.00  0.00     0.127 A   
ATOM     4   N4  UNL     1      -1.446   1.125   1.747  1.00  0.00    -0.132 NA  
ATOM     5   N5  UNL     1      -1.062   0.577   2.888  1.00  0.00    -0.075 NA  
ATOM     6   H8  UNL     1       0.902  -1.018   0.836  1.00  0.00     0.083 HD  
ENDROOT
BRANCH   1   7
ATOM     7   C2  UNL     1       0.487  -1.131   3.681  1.00  0.00     0.174 C   
BRANCH   7   8
ATOM     8   C1  UNL     1       0.365  -2.637   3.397  1.00  0.00     0.187 C   
BRANCH   8   9
ATOM     9   O1  UNL     1      -1.006  -3.048   3.356  1.00  0.00    -0.394 OA  
ATOM     10  H1  UNL     1      -1.262  -3.318   4.257  1.00  0.00     0.210 HD  
ENDBRANCH   8   9
ENDBRANCH   7   8
BRANCH   7  11
ATOM     11  C3  UNL     1       1.921  -0.694   3.902  1.00  0.00     0.065 A   
ATOM     12  C4  UNL     1       2.216   0.312   4.824  1.00  0.00     0.027 A   
ATOM     13  N1  UNL     1       2.885  -1.280   3.143  1.00  0.00    -0.258 NA  
ATOM     14  C5  UNL     1       3.540   0.718   4.989  1.00  0.00     0.024 A   
ATOM     15  C7  UNL     1       4.166  -0.867   3.330  1.00  0.00     0.131 A   
ATOM     16  C6  UNL     1       4.535   0.118   4.230  1.00  0.00     0.059 A   
ATOM     17  CL1 UNL     1       6.173   0.591   4.399  1.00  0.00    -0.083 Cl  
ENDBRANCH   7  11
ENDBRANCH   1   7
BRANCH   3  18
ATOM     18  C10 UNL     1      -0.996   0.932  -0.679  1.00  0.00     0.117 C   
BRANCH  18  19
ATOM     19  N3  UNL     1      -2.493   1.007  -0.902  1.00  0.00     0.249 N   
ATOM     20  H10 UNL     1      -2.697   1.384  -1.830  1.00  0.00     0.199 HD  
ATOM     21  H11 UNL     1      -2.855   1.677  -0.208  1.00  0.00     0.199 HD  
BRANCH  19  22
ATOM     22  C11 UNL     1      -3.254  -0.268  -0.723  1.00  0.00     0.164 C   
BRANCH  22  23
ATOM     23  C12 UNL     1      -2.846  -1.339  -1.695  1.00  0.00    -0.002 A   
ATOM     24  C13 UNL     1      -3.196  -1.240  -3.063  1.00  0.00     0.012 A   
ATOM     25  C17 UNL     1      -2.078  -2.431  -1.253  1.00  0.00     0.045 A   
ATOM     26  C14 UNL     1      -2.780  -2.210  -3.982  1.00  0.00     0.037 A   
ATOM     27  C16 UNL     1      -1.681  -3.367  -2.186  1.00  0.00     0.109 A   
ATOM     28  C15 UNL     1      -2.021  -3.259  -3.511  1.00  0.00     0.108 A   
ATOM     29  O2  UNL     1      -0.929  -4.470  -1.930  1.00  0.00    -0.316 OA  
ATOM     30  O3  UNL     1      -1.529  -4.283  -4.257  1.00  0.00    -0.316 OA  
ATOM     31  C18 UNL     1      -0.866  -5.068  -3.243  1.00  0.00     0.337 C   
ENDBRANCH  22  23
ENDBRANCH  19  22
ENDBRANCH  18  19
BRANCH  18  32
ATOM     32  C19 UNL     1      -0.381   2.296  -1.053  1.00  0.00     0.043 C   
ATOM     33  C20 UNL     1      -0.627   2.721  -2.507  1.00  0.00     0.010 C   
ATOM     34  C23 UNL     1       1.148   2.318  -0.958  1.00  0.00     0.010 C   
ATOM     35  C21 UNL     1       0.537   3.638  -2.882  1.00  0.00     0.001 C   
ATOM     36  C22 UNL     1       1.523   3.577  -1.721  1.00  0.00     0.001 C   
ENDBRANCH  18  32
ENDBRANCH   3  18
TORSDOF 9
