REMARK SMILES OC[C@H](c1ccc(Cl)cn1)n1cc([C@@H]([NH2+]Cc2ccc3c(c2)OCO3)C2CCCC2)nn1
REMARK SMILES IDX 11 1 12 2 13 3 31 4 32 5 3 7 2 8 1 9 4 11 5 12 10 13 6 14
REMARK SMILES IDX 9 15 7 16 8 17 14 18 15 19 16 22 17 23 18 24 22 25 19 26
REMARK SMILES IDX 21 27 20 28 23 29 25 30 24 31 26 32 27 33 30 34 28 35 29 36
REMARK H PARENT 12 6 1 10 15 20 15 21
ROOT
ATOM     1   N2  UNL     1       2.083   1.209  -0.495  1.00  0.00    -0.201 N   
ATOM     2   C8  UNL     1       0.803   1.262  -0.012  1.00  0.00     0.046 A   
ATOM     3   C9  UNL     1       0.913   0.827   1.288  1.00  0.00     0.127 A   
ATOM     4   N4  UNL     1       2.216   0.469   1.532  1.00  0.00    -0.132 NA  
ATOM     5   N5  UNL     1       2.920   0.703   0.436  1.00  0.00    -0.075 NA  
ATOM     6   H8  UNL     1      -0.028   1.609  -0.611  1.00  0.00     0.083 HD  
ENDROOT
BRANCH   1   7
ATOM     7   C2  UNL     1       2.598   1.605  -1.801  1.00  0.00     0.174 C   
BRANCH   7   8
ATOM     8   C1  UNL     1       2.264   3.068  -2.151  1.00  0.00     0.187 C   
BRANCH   8   9
ATOM     9   O1  UNL     1       0.866   3.316  -2.328  1.00  0.00    -0.394 OA  
ATOM     10  H1  UNL     1       0.568   2.683  -3.019  1.00  0.00     0.210 HD  
ENDBRANCH   8   9
ENDBRANCH   7   8
BRANCH   7  11
ATOM     11  C3  UNL     1       2.156   0.608  -2.859  1.00  0.00     0.065 A   
ATOM     12  C4  UNL     1       2.908  -0.545  -3.096  1.00  0.00     0.027 A   
ATOM     13  N1  UNL     1       1.005   0.871  -3.539  1.00  0.00    -0.258 NA  
ATOM     14  C5  UNL     1       2.481  -1.447  -4.072  1.00  0.00     0.024 A   
ATOM     15  C7  UNL     1       0.617  -0.026  -4.483  1.00  0.00     0.131 A   
ATOM     16  C6  UNL     1       1.316  -1.184  -4.779  1.00  0.00     0.059 A   
ATOM     17  CL1 UNL     1       0.750  -2.269  -5.979  1.00  0.00    -0.083 Cl  
ENDBRANCH   7  11
ENDBRANCH   1   7
BRANCH   3  18
ATOM     18  C10 UNL     1      -0.113   0.633   2.357  1.00  0.00     0.117 C   
BRANCH  18  19
ATOM     19  N3  UNL     1       0.269  -0.583   3.184  1.00  0.00     0.249 N   
ATOM     20  H10 UNL     1       0.157  -0.390   4.183  1.00  0.00     0.199 HD  
ATOM     21  H11 UNL     1       1.282  -0.714   3.037  1.00  0.00     0.199 HD  
BRANCH  19  22
ATOM     22  C11 UNL     1      -0.430  -1.857   2.856  1.00  0.00     0.164 C   
BRANCH  22  23
ATOM     23  C12 UNL     1      -0.299  -2.293   1.423  1.00  0.00    -0.002 A   
ATOM     24  C13 UNL     1       0.951  -2.711   0.905  1.00  0.00     0.012 A   
ATOM     25  C17 UNL     1      -1.423  -2.274   0.577  1.00  0.00     0.045 A   
ATOM     26  C14 UNL     1       1.085  -3.091  -0.435  1.00  0.00     0.037 A   
ATOM     27  C16 UNL     1      -1.257  -2.659  -0.738  1.00  0.00     0.109 A   
ATOM     28  C15 UNL     1      -0.039  -3.055  -1.230  1.00  0.00     0.108 A   
ATOM     29  O2  UNL     1      -2.239  -2.697  -1.679  1.00  0.00    -0.316 OA  
ATOM     30  O3  UNL     1      -0.098  -3.394  -2.545  1.00  0.00    -0.316 OA  
ATOM     31  C18 UNL     1      -1.506  -3.208  -2.816  1.00  0.00     0.337 C   
ENDBRANCH  22  23
ENDBRANCH  19  22
ENDBRANCH  18  19
BRANCH  18  32
ATOM     32  C19 UNL     1      -0.281   1.831   3.312  1.00  0.00     0.043 C   
ATOM     33  C20 UNL     1       0.969   2.289   4.067  1.00  0.00     0.010 C   
ATOM     34  C23 UNL     1      -0.804   3.114   2.647  1.00  0.00     0.010 C   
ATOM     35  C21 UNL     1       0.551   3.650   4.603  1.00  0.00     0.001 C   
ATOM     36  C22 UNL     1      -0.219   4.278   3.452  1.00  0.00     0.001 C   
ENDBRANCH  18  32
ENDBRANCH   3  18
TORSDOF 9
