REMARK SMILES CC(C)[C@H]([NH2+]Cc1ccc2c(c1)OCO2)c1cn(Cc2cn[nH]c2C2CCC2)nn1
REMARK SMILES IDX 16 1 17 2 18 3 29 4 30 5 4 7 2 8 1 9 3 10 5 11 6 14 7 15
REMARK SMILES IDX 8 16 12 17 9 18 11 19 10 20 13 21 15 22 14 23 19 24 20 25
REMARK SMILES IDX 21 26 24 27 22 28 23 29 25 31 26 32 28 33 27 34
REMARK H PARENT 17 6 5 12 5 13 23 30
ROOT
ATOM     1   C13 UNL     1      -1.306   1.582  -0.166  1.00  0.00     0.127 A   
ATOM     2   C14 UNL     1      -0.065   1.131  -0.556  1.00  0.00     0.046 A   
ATOM     3   N2  UNL     1       0.748   1.452   0.497  1.00  0.00    -0.208 N   
ATOM     4   N5  UNL     1       0.052   2.086   1.464  1.00  0.00    -0.076 NA  
ATOM     5   N6  UNL     1      -1.208   2.160   1.073  1.00  0.00    -0.132 NA  
ATOM     6   H18 UNL     1       0.293   0.594  -1.423  1.00  0.00     0.083 HD  
ENDROOT
BRANCH   1   7
ATOM     7   C4  UNL     1      -2.657   1.435  -0.789  1.00  0.00     0.117 C   
BRANCH   7   8
ATOM     8   C2  UNL     1      -3.213   2.759  -1.373  1.00  0.00     0.037 C   
ATOM     9   C1  UNL     1      -2.251   3.373  -2.400  1.00  0.00     0.014 C   
ATOM     10  C3  UNL     1      -4.575   2.553  -2.054  1.00  0.00     0.014 C   
ENDBRANCH   7   8
BRANCH   7  11
ATOM     11  N1  UNL     1      -3.597   0.927   0.292  1.00  0.00     0.249 N   
ATOM     12  H9  UNL     1      -3.090   1.041   1.185  1.00  0.00     0.199 HD  
ATOM     13  H10 UNL     1      -4.411   1.541   0.391  1.00  0.00     0.199 HD  
BRANCH  11  14
ATOM     14  C5  UNL     1      -4.037  -0.490   0.180  1.00  0.00     0.164 C   
BRANCH  14  15
ATOM     15  C6  UNL     1      -2.908  -1.483   0.180  1.00  0.00    -0.002 A   
ATOM     16  C7  UNL     1      -2.114  -1.674   1.336  1.00  0.00     0.012 A   
ATOM     17  C11 UNL     1      -2.623  -2.225  -0.980  1.00  0.00     0.045 A   
ATOM     18  C8  UNL     1      -1.049  -2.583   1.337  1.00  0.00     0.037 A   
ATOM     19  C10 UNL     1      -1.567  -3.112  -0.944  1.00  0.00     0.109 A   
ATOM     20  C9  UNL     1      -0.799  -3.286   0.180  1.00  0.00     0.108 A   
ATOM     21  O1  UNL     1      -1.161  -3.897  -1.977  1.00  0.00    -0.316 OA  
ATOM     22  O2  UNL     1       0.189  -4.202  -0.004  1.00  0.00    -0.316 OA  
ATOM     23  C12 UNL     1      -0.096  -4.644  -1.348  1.00  0.00     0.337 C   
ENDBRANCH  14  15
ENDBRANCH  11  14
ENDBRANCH   7  11
ENDBRANCH   1   7
BRANCH   3  24
ATOM     24  C15 UNL     1       2.159   1.145   0.678  1.00  0.00     0.172 C   
BRANCH  24  25
ATOM     25  C16 UNL     1       2.315  -0.195   1.306  1.00  0.00     0.010 A   
ATOM     26  C17 UNL     1       1.928  -0.558   2.620  1.00  0.00     0.138 A   
ATOM     27  C18 UNL     1       2.861  -1.357   0.798  1.00  0.00     0.034 A   
ATOM     28  N3  UNL     1       2.175  -1.838   2.895  1.00  0.00    -0.192 NA  
ATOM     29  N4  UNL     1       2.764  -2.300   1.782  1.00  0.00    -0.242 N   
ATOM     30  H22 UNL     1       3.072  -3.268   1.766  1.00  0.00     0.175 HD  
BRANCH  27  31
ATOM     31  C19 UNL     1       3.514  -1.558  -0.596  1.00  0.00     0.035 C   
ATOM     32  C20 UNL     1       3.781  -3.023  -1.031  1.00  0.00     0.010 C   
ATOM     33  C22 UNL     1       2.542  -1.478  -1.800  1.00  0.00     0.010 C   
ATOM     34  C21 UNL     1       3.385  -2.589  -2.457  1.00  0.00     0.001 C   
ENDBRANCH  27  31
ENDBRANCH  24  25
ENDBRANCH   3  24
TORSDOF 8
