REMARK SMILES Cn1nc(Cn2cc([C@@H]([NH2+]Cc3ccc4c(c3)OCO4)C(C)(C)C)nn2)c2c1CCC2
REMARK SMILES IDX 6 1 7 2 8 3 25 4 26 5 5 7 4 8 2 9 3 10 28 11 27 12 29 13
REMARK SMILES IDX 31 14 30 15 1 16 9 17 10 18 11 21 12 22 13 23 17 24 14 25
REMARK SMILES IDX 16 26 15 27 18 28 20 29 19 30 21 31 22 32 23 33 24 34
REMARK H PARENT 7 6 10 19 10 20
ROOT
ATOM     1   N3  UNL     1      -1.489   0.843   2.438  1.00  0.00    -0.206 N   
ATOM     2   C4  UNL     1      -1.435   1.909   1.581  1.00  0.00     0.046 A   
ATOM     3   C5  UNL     1      -2.084   1.464   0.452  1.00  0.00     0.127 A   
ATOM     4   N5  UNL     1      -2.506   0.174   0.655  1.00  0.00    -0.132 NA  
ATOM     5   N6  UNL     1      -2.142  -0.193   1.873  1.00  0.00    -0.076 NA  
ATOM     6   H6  UNL     1      -0.929   2.829   1.844  1.00  0.00     0.083 HD  
ENDROOT
BRANCH   1   7
ATOM     7   C3  UNL     1      -0.962   0.752   3.788  1.00  0.00     0.192 C   
BRANCH   7   8
ATOM     8   C2  UNL     1       0.502   0.493   3.748  1.00  0.00     0.083 A   
ATOM     9   N1  UNL     1       2.607   0.906   3.603  1.00  0.00    -0.232 N   
ATOM     10  N2  UNL     1       1.381   1.491   3.499  1.00  0.00    -0.185 NA  
ATOM     11  C20 UNL     1       2.501  -0.413   3.853  1.00  0.00     0.033 A   
ATOM     12  C19 UNL     1       1.177  -0.713   3.958  1.00  0.00    -0.004 A   
ATOM     13  C21 UNL     1       3.419  -1.541   4.064  1.00  0.00     0.054 C   
ATOM     14  C23 UNL     1       0.964  -2.137   4.268  1.00  0.00     0.039 C   
ATOM     15  C22 UNL     1       2.399  -2.734   4.032  1.00  0.00     0.011 C   
ATOM     16  C1  UNL     1       3.801   1.697   3.451  1.00  0.00     0.159 C   
ENDBRANCH   7   8
ENDBRANCH   1   7
BRANCH   3  17
ATOM     17  C6  UNL     1      -2.280   2.102  -0.889  1.00  0.00     0.120 C   
BRANCH  17  18
ATOM     18  N4  UNL     1      -2.120   1.038  -1.950  1.00  0.00     0.250 N   
ATOM     19  H8  UNL     1      -2.516   1.316  -2.850  1.00  0.00     0.199 HD  
ATOM     20  H9  UNL     1      -2.667   0.223  -1.632  1.00  0.00     0.199 HD  
BRANCH  18  21
ATOM     21  C7  UNL     1      -0.723   0.566  -2.167  1.00  0.00     0.164 C   
BRANCH  21  22
ATOM     22  C8  UNL     1      -0.699  -0.544  -3.179  1.00  0.00    -0.002 A   
ATOM     23  C9  UNL     1      -0.902  -1.883  -2.768  1.00  0.00     0.012 A   
ATOM     24  C13 UNL     1      -0.532  -0.255  -4.544  1.00  0.00     0.045 A   
ATOM     25  C10 UNL     1      -0.927  -2.925  -3.701  1.00  0.00     0.037 A   
ATOM     26  C12 UNL     1      -0.563  -1.306  -5.438  1.00  0.00     0.109 A   
ATOM     27  C11 UNL     1      -0.754  -2.603  -5.029  1.00  0.00     0.108 A   
ATOM     28  O1  UNL     1      -0.419  -1.201  -6.785  1.00  0.00    -0.316 OA  
ATOM     29  O2  UNL     1      -0.752  -3.479  -6.067  1.00  0.00    -0.316 OA  
ATOM     30  C14 UNL     1      -0.519  -2.588  -7.180  1.00  0.00     0.337 C   
ENDBRANCH  21  22
ENDBRANCH  18  21
ENDBRANCH  17  18
BRANCH  17  31
ATOM     31  C15 UNL     1      -3.653   2.841  -1.057  1.00  0.00     0.010 C   
ATOM     32  C16 UNL     1      -4.859   1.883  -0.985  1.00  0.00     0.017 C   
ATOM     33  C17 UNL     1      -3.703   3.581  -2.414  1.00  0.00     0.017 C   
ATOM     34  C18 UNL     1      -3.818   3.913   0.045  1.00  0.00     0.017 C   
ENDBRANCH  17  31
ENDBRANCH   3  17
TORSDOF 7
