REMARK SMILES O[C@H](Cn1cc([C@@H]([NH2+]Cc2ccc3c(c2)OCO3)C2CCCCC2)nn1)c1ccco1
REMARK SMILES IDX 4 1 5 2 6 3 25 4 26 5 3 7 2 8 1 9 27 11 28 12 31 13 29 14
REMARK SMILES IDX 30 15 7 16 8 17 9 20 10 21 11 22 15 23 12 24 14 25 13 26
REMARK SMILES IDX 16 27 18 28 17 29 19 30 20 31 24 32 21 33 23 34 22 35
REMARK H PARENT 5 6 1 10 8 18 8 19
ROOT
ATOM     1   N1  UNL     1      -0.346  -2.549   1.898  1.00  0.00    -0.209 N   
ATOM     2   C3  UNL     1       0.155  -1.727   0.928  1.00  0.00     0.045 A   
ATOM     3   C4  UNL     1      -0.938  -1.000   0.513  1.00  0.00     0.127 A   
ATOM     4   N3  UNL     1      -2.052  -1.447   1.179  1.00  0.00    -0.132 NA  
ATOM     5   N4  UNL     1      -1.677  -2.397   2.019  1.00  0.00    -0.076 NA  
ATOM     6   H5  UNL     1       1.206  -1.707   0.673  1.00  0.00     0.083 HD  
ENDROOT
BRANCH   1   7
ATOM     7   C2  UNL     1       0.378  -3.456   2.757  1.00  0.00     0.172 C   
BRANCH   7   8
ATOM     8   C1  UNL     1       0.493  -2.944   4.191  1.00  0.00     0.187 C   
BRANCH   8   9
ATOM     9   O1  UNL     1       1.247  -3.889   4.954  1.00  0.00    -0.385 OA  
ATOM     10  H1  UNL     1       1.500  -3.461   5.791  1.00  0.00     0.211 HD  
ENDBRANCH   8   9
BRANCH   8  11
ATOM     11  C20 UNL     1       1.193  -1.629   4.290  1.00  0.00     0.089 A   
ATOM     12  C21 UNL     1       0.896  -0.454   4.949  1.00  0.00     0.034 A   
ATOM     13  O4  UNL     1       2.371  -1.495   3.613  1.00  0.00    -0.320 OA  
ATOM     14  C22 UNL     1       1.956   0.441   4.669  1.00  0.00     0.028 A   
ATOM     15  C23 UNL     1       2.831  -0.242   3.858  1.00  0.00     0.136 A   
ENDBRANCH   8  11
ENDBRANCH   7   8
ENDBRANCH   1   7
BRANCH   3  16
ATOM     16  C5  UNL     1      -1.072   0.093  -0.502  1.00  0.00     0.117 C   
BRANCH  16  17
ATOM     17  N2  UNL     1      -2.458  -0.008  -1.100  1.00  0.00     0.249 N   
ATOM     18  H7  UNL     1      -2.577  -0.991  -1.377  1.00  0.00     0.199 HD  
ATOM     19  H8  UNL     1      -3.136   0.104  -0.335  1.00  0.00     0.199 HD  
BRANCH  17  20
ATOM     20  C6  UNL     1      -2.817   0.851  -2.255  1.00  0.00     0.164 C   
BRANCH  20  21
ATOM     21  C7  UNL     1      -1.946   0.621  -3.458  1.00  0.00    -0.002 A   
ATOM     22  C8  UNL     1      -0.989   1.589  -3.845  1.00  0.00     0.012 A   
ATOM     23  C12 UNL     1      -2.055  -0.573  -4.191  1.00  0.00     0.045 A   
ATOM     24  C9  UNL     1      -0.146   1.371  -4.941  1.00  0.00     0.037 A   
ATOM     25  C11 UNL     1      -1.210  -0.757  -5.266  1.00  0.00     0.109 A   
ATOM     26  C10 UNL     1      -0.281   0.186  -5.629  1.00  0.00     0.108 A   
ATOM     27  O2  UNL     1      -1.182  -1.850  -6.071  1.00  0.00    -0.316 OA  
ATOM     28  O3  UNL     1       0.449  -0.195  -6.709  1.00  0.00    -0.316 OA  
ATOM     29  C13 UNL     1      -0.145  -1.476  -7.007  1.00  0.00     0.337 C   
ENDBRANCH  20  21
ENDBRANCH  17  20
ENDBRANCH  16  17
BRANCH  16  30
ATOM     30  C14 UNL     1      -0.813   1.513   0.073  1.00  0.00     0.043 C   
ATOM     31  C15 UNL     1      -1.772   1.923   1.209  1.00  0.00     0.010 C   
ATOM     32  C19 UNL     1       0.651   1.681   0.531  1.00  0.00     0.010 C   
ATOM     33  C16 UNL     1      -1.481   3.338   1.710  1.00  0.00     0.001 C   
ATOM     34  C18 UNL     1       0.932   3.099   1.024  1.00  0.00     0.001 C   
ATOM     35  C17 UNL     1      -0.027   3.502   2.138  1.00  0.00     0.000 C   
ENDBRANCH  16  30
ENDBRANCH   3  16
TORSDOF 9
