REMARK SMILES O[C@@H](Cn1cc([C@@H]([NH2+]Cc2ccc3c(c2)OCO3)C2CCCCC2)nn1)c1ccco1
REMARK SMILES IDX 4 1 5 2 6 3 25 4 26 5 3 7 2 8 1 9 27 11 28 12 31 13 29 14
REMARK SMILES IDX 30 15 7 16 8 17 9 20 10 21 11 22 15 23 12 24 14 25 13 26
REMARK SMILES IDX 16 27 18 28 17 29 19 30 20 31 24 32 21 33 23 34 22 35
REMARK H PARENT 5 6 1 10 8 18 8 19
ROOT
ATOM     1   N1  UNL     1      -2.451  -1.657   0.675  1.00  0.00    -0.209 N   
ATOM     2   C3  UNL     1      -1.462  -1.910  -0.233  1.00  0.00     0.045 A   
ATOM     3   C4  UNL     1      -0.993  -0.661  -0.569  1.00  0.00     0.127 A   
ATOM     4   N3  UNL     1      -1.770   0.289   0.047  1.00  0.00    -0.132 NA  
ATOM     5   N4  UNL     1      -2.679  -0.334   0.778  1.00  0.00    -0.076 NA  
ATOM     6   H5  UNL     1      -1.157  -2.915  -0.489  1.00  0.00     0.083 HD  
ENDROOT
BRANCH   1   7
ATOM     7   C2  UNL     1      -3.236  -2.606   1.439  1.00  0.00     0.172 C   
BRANCH   7   8
ATOM     8   C1  UNL     1      -2.572  -3.033   2.752  1.00  0.00     0.187 C   
BRANCH   8   9
ATOM     9   O1  UNL     1      -2.351  -1.921   3.619  1.00  0.00    -0.385 OA  
ATOM     10  H1  UNL     1      -3.218  -1.565   3.880  1.00  0.00     0.211 HD  
ENDBRANCH   8   9
BRANCH   8  11
ATOM     11  C20 UNL     1      -1.260  -3.714   2.552  1.00  0.00     0.089 A   
ATOM     12  C21 UNL     1       0.014  -3.508   3.044  1.00  0.00     0.034 A   
ATOM     13  O4  UNL     1      -1.258  -4.791   1.709  1.00  0.00    -0.320 OA  
ATOM     14  C22 UNL     1       0.831  -4.520   2.486  1.00  0.00     0.028 A   
ATOM     15  C23 UNL     1       0.009  -5.279   1.689  1.00  0.00     0.136 A   
ENDBRANCH   8  11
ENDBRANCH   7   8
ENDBRANCH   1   7
BRANCH   3  16
ATOM     16  C5  UNL     1       0.132  -0.226  -1.451  1.00  0.00     0.117 C   
BRANCH  16  17
ATOM     17  N2  UNL     1      -0.097   1.202  -1.891  1.00  0.00     0.249 N   
ATOM     18  H7  UNL     1      -0.534   1.683  -1.087  1.00  0.00     0.199 HD  
ATOM     19  H8  UNL     1       0.782   1.694  -2.074  1.00  0.00     0.199 HD  
BRANCH  17  20
ATOM     20  C6  UNL     1      -1.014   1.370  -3.049  1.00  0.00     0.164 C   
BRANCH  20  21
ATOM     21  C7  UNL     1      -1.298   2.823  -3.298  1.00  0.00    -0.002 A   
ATOM     22  C8  UNL     1      -2.498   3.408  -2.829  1.00  0.00     0.012 A   
ATOM     23  C12 UNL     1      -0.349   3.626  -3.956  1.00  0.00     0.045 A   
ATOM     24  C9  UNL     1      -2.764   4.766  -3.035  1.00  0.00     0.037 A   
ATOM     25  C11 UNL     1      -0.642   4.962  -4.139  1.00  0.00     0.109 A   
ATOM     26  C10 UNL     1      -1.819   5.515  -3.698  1.00  0.00     0.108 A   
ATOM     27  O2  UNL     1       0.163   5.870  -4.750  1.00  0.00    -0.316 OA  
ATOM     28  O3  UNL     1      -1.909   6.839  -3.989  1.00  0.00    -0.316 OA  
ATOM     29  C13 UNL     1      -0.658   7.057  -4.677  1.00  0.00     0.337 C   
ENDBRANCH  20  21
ENDBRANCH  17  20
ENDBRANCH  16  17
BRANCH  16  30
ATOM     30  C14 UNL     1       1.535  -0.310  -0.794  1.00  0.00     0.043 C   
ATOM     31  C15 UNL     1       1.687   0.546   0.480  1.00  0.00     0.010 C   
ATOM     32  C19 UNL     1       1.952  -1.764  -0.504  1.00  0.00     0.010 C   
ATOM     33  C16 UNL     1       3.105   0.459   1.046  1.00  0.00     0.001 C   
ATOM     34  C18 UNL     1       3.371  -1.845   0.057  1.00  0.00     0.001 C   
ATOM     35  C17 UNL     1       3.526  -0.982   1.305  1.00  0.00     0.000 C   
ENDBRANCH  16  30
ENDBRANCH   3  16
TORSDOF 9
