REMARK SMILES CCc1n[nH]c(C2CC2)c1Cn1cc([C@H](CC(C)C)[NH2+]Cc2ccc3c(c2)OCO3)nn1
REMARK SMILES IDX 12 1 13 2 14 3 31 4 32 5 11 7 10 8 3 9 4 10 5 11 6 12 2 14
REMARK SMILES IDX 1 15 7 16 8 17 9 18 15 19 16 20 17 21 18 22 19 23 20 24
REMARK SMILES IDX 21 27 22 28 23 29 27 30 24 31 26 32 25 33 28 34 30 35 29 36
REMARK H PARENT 13 6 5 13 20 25 20 26
ROOT
ATOM     1   N3  UNL     1      -0.580   1.961   1.257  1.00  0.00    -0.208 N   
ATOM     2   C10 UNL     1      -1.010   0.667   1.379  1.00  0.00     0.046 A   
ATOM     3   C11 UNL     1       0.120  -0.086   1.151  1.00  0.00     0.127 A   
ATOM     4   N5  UNL     1       1.180   0.753   0.922  1.00  0.00    -0.132 NA  
ATOM     5   N6  UNL     1       0.743   1.999   1.006  1.00  0.00    -0.076 NA  
ATOM     6   H14 UNL     1      -2.040   0.417   1.587  1.00  0.00     0.083 HD  
ENDROOT
BRANCH   1   7
ATOM     7   C9  UNL     1      -1.359   3.186   1.365  1.00  0.00     0.173 C   
BRANCH   7   8
ATOM     8   C8  UNL     1      -2.250   3.354   0.182  1.00  0.00     0.014 A   
ATOM     9   C3  UNL     1      -1.871   3.656  -1.163  1.00  0.00     0.065 A   
ATOM     10  N1  UNL     1      -2.933   3.720  -1.975  1.00  0.00    -0.189 NA  
ATOM     11  N2  UNL     1      -3.985   3.553  -1.163  1.00  0.00    -0.242 N   
ATOM     12  C4  UNL     1      -3.629   3.307   0.129  1.00  0.00     0.035 A   
ATOM     13  H6  UNL     1      -4.918   3.620  -1.556  1.00  0.00     0.175 HD  
BRANCH   9  14
ATOM     14  C2  UNL     1      -0.508   3.910  -1.727  1.00  0.00     0.055 C   
ATOM     15  C1  UNL     1       0.049   2.713  -2.485  1.00  0.00     0.011 C   
ENDBRANCH   9  14
BRANCH  12  16
ATOM     16  C5  UNL     1      -4.612   3.102   1.307  1.00  0.00     0.036 C   
ATOM     17  C6  UNL     1      -4.829   1.716   1.850  1.00  0.00     0.010 C   
ATOM     18  C7  UNL     1      -5.918   2.390   1.072  1.00  0.00     0.010 C   
ENDBRANCH  12  16
ENDBRANCH   7   8
ENDBRANCH   1   7
BRANCH   3  19
ATOM     19  C12 UNL     1       0.312  -1.561   1.051  1.00  0.00     0.114 C   
BRANCH  19  20
ATOM     20  C13 UNL     1       1.005  -2.157   2.291  1.00  0.00     0.064 C   
BRANCH  20  21
ATOM     21  C14 UNL     1       0.225  -2.006   3.615  1.00  0.00    -0.012 C   
ATOM     22  C15 UNL     1      -1.134  -2.707   3.575  1.00  0.00     0.007 C   
ATOM     23  C16 UNL     1       1.060  -2.565   4.771  1.00  0.00     0.007 C   
ENDBRANCH  20  21
ENDBRANCH  19  20
BRANCH  19  24
ATOM     24  N4  UNL     1       1.182  -1.888  -0.139  1.00  0.00     0.249 N   
ATOM     25  H25 UNL     1       2.029  -1.307  -0.061  1.00  0.00     0.199 HD  
ATOM     26  H26 UNL     1       1.495  -2.864  -0.112  1.00  0.00     0.199 HD  
BRANCH  24  27
ATOM     27  C17 UNL     1       0.568  -1.615  -1.470  1.00  0.00     0.164 C   
BRANCH  27  28
ATOM     28  C18 UNL     1       1.495  -2.028  -2.579  1.00  0.00    -0.002 A   
ATOM     29  C19 UNL     1       1.287  -3.245  -3.271  1.00  0.00     0.012 A   
ATOM     30  C23 UNL     1       2.597  -1.219  -2.912  1.00  0.00     0.045 A   
ATOM     31  C20 UNL     1       2.157  -3.649  -4.289  1.00  0.00     0.037 A   
ATOM     32  C22 UNL     1       3.436  -1.648  -3.921  1.00  0.00     0.109 A   
ATOM     33  C21 UNL     1       3.222  -2.828  -4.591  1.00  0.00     0.108 A   
ATOM     34  O1  UNL     1       4.540  -0.991  -4.365  1.00  0.00    -0.316 OA  
ATOM     35  O2  UNL     1       4.161  -3.061  -5.545  1.00  0.00    -0.316 OA  
ATOM     36  C24 UNL     1       4.972  -1.871  -5.428  1.00  0.00     0.337 C   
ENDBRANCH  27  28
ENDBRANCH  24  27
ENDBRANCH  19  24
ENDBRANCH   3  19
TORSDOF 10
