REMARK SMILES CC(C)C[C@H]([NH2+]Cc1ccc2c(c1)OCO2)c1cn(CCc2ccc(O)cc2F)nn1
REMARK SMILES IDX 17 1 18 2 19 3 30 4 31 5 5 7 4 8 2 9 1 10 3 11 6 12 7 15
REMARK SMILES IDX 8 16 9 17 13 18 10 19 12 20 11 21 14 22 16 23 15 24 20 25
REMARK SMILES IDX 21 26 22 27 23 28 28 29 24 30 27 31 25 32 29 33 26 34
REMARK H PARENT 18 6 6 13 6 14 26 35
ROOT
ATOM     1   C14 UNL     1      -0.306   0.007   1.818  1.00  0.00     0.127 A   
ATOM     2   C15 UNL     1      -1.009  -0.795   0.949  1.00  0.00     0.045 A   
ATOM     3   N2  UNL     1      -2.315  -0.468   1.185  1.00  0.00    -0.212 N   
ATOM     4   N3  UNL     1      -2.414   0.417   2.194  1.00  0.00    -0.076 NA  
ATOM     5   N4  UNL     1      -1.187   0.725   2.584  1.00  0.00    -0.132 NA  
ATOM     6   H20 UNL     1      -0.714  -1.467   0.153  1.00  0.00     0.083 HD  
ENDROOT
BRANCH   1   7
ATOM     7   C5  UNL     1       1.159   0.273   1.919  1.00  0.00     0.114 C   
BRANCH   7   8
ATOM     8   C4  UNL     1       1.760  -0.152   3.268  1.00  0.00     0.064 C   
BRANCH   8   9
ATOM     9   C2  UNL     1       1.661  -1.663   3.573  1.00  0.00    -0.012 C   
ATOM     10  C1  UNL     1       2.208  -1.940   4.976  1.00  0.00     0.007 C   
ATOM     11  C3  UNL     1       2.415  -2.513   2.549  1.00  0.00     0.007 C   
ENDBRANCH   8   9
ENDBRANCH   7   8
BRANCH   7  12
ATOM     12  N1  UNL     1       1.358   1.763   1.733  1.00  0.00     0.249 N   
ATOM     13  H11 UNL     1       0.721   2.054   0.978  1.00  0.00     0.199 HD  
ATOM     14  H12 UNL     1       0.983   2.234   2.567  1.00  0.00     0.199 HD  
BRANCH  12  15
ATOM     15  C6  UNL     1       2.721   2.256   1.407  1.00  0.00     0.164 C   
BRANCH  15  16
ATOM     16  C7  UNL     1       3.257   1.685   0.122  1.00  0.00    -0.002 A   
ATOM     17  C8  UNL     1       4.322   0.753   0.138  1.00  0.00     0.012 A   
ATOM     18  C12 UNL     1       2.664   2.036  -1.103  1.00  0.00     0.045 A   
ATOM     19  C9  UNL     1       4.777   0.165  -1.048  1.00  0.00     0.037 A   
ATOM     20  C11 UNL     1       3.127   1.430  -2.253  1.00  0.00     0.109 A   
ATOM     21  C10 UNL     1       4.154   0.520  -2.225  1.00  0.00     0.108 A   
ATOM     22  O1  UNL     1       2.638   1.628  -3.508  1.00  0.00    -0.316 OA  
ATOM     23  O2  UNL     1       4.451   0.036  -3.459  1.00  0.00    -0.316 OA  
ATOM     24  C13 UNL     1       3.519   0.774  -4.278  1.00  0.00     0.337 C   
ENDBRANCH  15  16
ENDBRANCH  12  15
ENDBRANCH   7  12
ENDBRANCH   1   7
BRANCH   3  25
ATOM     25  C16 UNL     1      -3.467  -0.809   0.375  1.00  0.00     0.139 C   
BRANCH  25  26
ATOM     26  C17 UNL     1      -4.015   0.384  -0.421  1.00  0.00     0.060 C   
BRANCH  26  27
ATOM     27  C18 UNL     1      -2.958   1.179  -1.154  1.00  0.00    -0.010 A   
ATOM     28  C19 UNL     1      -2.724   2.520  -0.816  1.00  0.00     0.009 A   
ATOM     29  C23 UNL     1      -2.163   0.592  -2.146  1.00  0.00     0.129 A   
ATOM     30  C20 UNL     1      -1.703   3.236  -1.442  1.00  0.00     0.033 A   
ATOM     31  C22 UNL     1      -1.140   1.296  -2.773  1.00  0.00     0.072 A   
ATOM     32  C21 UNL     1      -0.915   2.617  -2.406  1.00  0.00     0.074 A   
ATOM     33  F1  UNL     1      -2.354  -0.696  -2.474  1.00  0.00    -0.207 F   
BRANCH  32  34
ATOM     34  O3  UNL     1       0.093   3.352  -2.955  1.00  0.00    -0.361 OA  
ATOM     35  H27 UNL     1       0.521   2.839  -3.668  1.00  0.00     0.218 HD  
ENDBRANCH  32  34
ENDBRANCH  26  27
ENDBRANCH  25  26
ENDBRANCH   3  25
TORSDOF 10
