REMARK SMILES Cc1cc(Cn2cc([C@@H]([NH2+]Cc3ccc4c(c3)OCO4)C(C)(C)C)nn2)ccc1F
REMARK SMILES IDX 6 1 7 2 8 3 25 4 26 5 5 7 4 8 2 9 3 10 29 11 28 12 27 13
REMARK SMILES IDX 1 14 30 15 9 16 10 17 11 20 12 21 13 22 17 23 14 24 16 25
REMARK SMILES IDX 15 26 18 27 20 28 19 29 21 30 22 31 23 32 24 33
REMARK H PARENT 7 6 10 18 10 19
ROOT
ATOM     1   N1  UNL     1       2.800   0.395  -1.178  1.00  0.00    -0.208 N   
ATOM     2   C6  UNL     1       2.463  -0.731  -0.478  1.00  0.00     0.046 A   
ATOM     3   C7  UNL     1       1.501  -1.333  -1.257  1.00  0.00     0.127 A   
ATOM     4   N3  UNL     1       1.278  -0.563  -2.371  1.00  0.00    -0.132 NA  
ATOM     5   N4  UNL     1       2.081   0.486  -2.314  1.00  0.00    -0.076 NA  
ATOM     6   H7  UNL     1       2.915  -0.978   0.472  1.00  0.00     0.083 HD  
ENDROOT
BRANCH   1   7
ATOM     7   C5  UNL     1       3.816   1.383  -0.860  1.00  0.00     0.169 C   
BRANCH   7   8
ATOM     8   C4  UNL     1       3.351   2.324   0.223  1.00  0.00    -0.028 A   
ATOM     9   C2  UNL     1       2.008   4.242   0.919  1.00  0.00    -0.015 A   
ATOM     10  C3  UNL     1       2.439   3.352  -0.075  1.00  0.00     0.011 A   
ATOM     11  C23 UNL     1       2.477   4.069   2.221  1.00  0.00     0.126 A   
ATOM     12  C22 UNL     1       3.377   3.057   2.535  1.00  0.00     0.040 A   
ATOM     13  C21 UNL     1       3.817   2.185   1.539  1.00  0.00     0.008 A   
ATOM     14  C1  UNL     1       1.023   5.329   0.610  1.00  0.00     0.047 C   
ATOM     15  F1  UNL     1       2.052   4.881   3.198  1.00  0.00    -0.207 F   
ENDBRANCH   7   8
ENDBRANCH   1   7
BRANCH   3  16
ATOM     16  C8  UNL     1       0.674  -2.567  -1.048  1.00  0.00     0.120 C   
BRANCH  16  17
ATOM     17  N2  UNL     1      -0.709  -2.308  -1.619  1.00  0.00     0.250 N   
ATOM     18  H9  UNL     1      -1.032  -3.091  -2.192  1.00  0.00     0.199 HD  
ATOM     19  H10 UNL     1      -0.595  -1.523  -2.280  1.00  0.00     0.199 HD  
BRANCH  17  20
ATOM     20  C9  UNL     1      -1.774  -1.951  -0.644  1.00  0.00     0.164 C   
BRANCH  20  21
ATOM     21  C10 UNL     1      -1.508  -0.688   0.127  1.00  0.00    -0.002 A   
ATOM     22  C11 UNL     1      -1.546   0.571  -0.521  1.00  0.00     0.012 A   
ATOM     23  C15 UNL     1      -1.206  -0.748   1.499  1.00  0.00     0.045 A   
ATOM     24  C12 UNL     1      -1.294   1.752   0.186  1.00  0.00     0.037 A   
ATOM     25  C14 UNL     1      -0.959   0.435   2.165  1.00  0.00     0.109 A   
ATOM     26  C13 UNL     1      -1.007   1.650   1.529  1.00  0.00     0.108 A   
ATOM     27  O1  UNL     1      -0.652   0.551   3.484  1.00  0.00    -0.316 OA  
ATOM     28  O2  UNL     1      -0.754   2.686   2.370  1.00  0.00    -0.316 OA  
ATOM     29  C16 UNL     1      -0.527   1.987   3.612  1.00  0.00     0.337 C   
ENDBRANCH  20  21
ENDBRANCH  17  20
ENDBRANCH  16  17
BRANCH  16  30
ATOM     30  C17 UNL     1       1.290  -3.868  -1.669  1.00  0.00     0.010 C   
ATOM     31  C18 UNL     1       0.421  -5.093  -1.303  1.00  0.00     0.017 C   
ATOM     32  C19 UNL     1       1.419  -3.796  -3.204  1.00  0.00     0.017 C   
ATOM     33  C20 UNL     1       2.697  -4.124  -1.081  1.00  0.00     0.017 C   
ENDBRANCH  16  30
ENDBRANCH   3  16
TORSDOF 7
