REMARK SMILES Oc1cccc(Cl)c1CCn1cc([C@@H]([NH2+]Cc2ccc3c(c2)OCO3)C2CCCCC2)nn1
REMARK SMILES IDX 11 1 12 2 13 3 32 4 33 5 10 7 9 8 8 9 2 10 3 11 4 12 6 13
REMARK SMILES IDX 5 14 7 15 1 16 14 18 15 19 16 22 17 23 18 24 22 25 19 26
REMARK SMILES IDX 21 27 20 28 23 29 25 30 24 31 26 32 27 33 31 34 28 35 30 36
REMARK SMILES IDX 29 37
REMARK H PARENT 12 6 1 17 15 20 15 21
ROOT
ATOM     1   N1  UNL     1       1.369  -0.188  -2.597  1.00  0.00    -0.212 N   
ATOM     2   C9  UNL     1       0.103   0.159  -2.203  1.00  0.00     0.045 A   
ATOM     3   C10 UNL     1       0.284   0.631  -0.918  1.00  0.00     0.127 A   
ATOM     4   N3  UNL     1       1.609   0.545  -0.584  1.00  0.00    -0.132 NA  
ATOM     5   N4  UNL     1       2.267   0.060  -1.626  1.00  0.00    -0.076 NA  
ATOM     6   H9  UNL     1      -0.761   0.029  -2.840  1.00  0.00     0.083 HD  
ENDROOT
BRANCH   1   7
ATOM     7   C8  UNL     1       1.779  -0.805  -3.840  1.00  0.00     0.139 C   
BRANCH   7   8
ATOM     8   C7  UNL     1       2.060  -2.305  -3.700  1.00  0.00     0.061 C   
BRANCH   8   9
ATOM     9   C6  UNL     1       0.828  -3.126  -3.363  1.00  0.00     0.002 A   
ATOM     10  C1  UNL     1      -0.123  -3.382  -4.362  1.00  0.00     0.076 A   
ATOM     11  C2  UNL     1      -1.281  -4.124  -4.104  1.00  0.00     0.033 A   
ATOM     12  C3  UNL     1      -1.506  -4.626  -2.827  1.00  0.00     0.004 A   
ATOM     13  C5  UNL     1       0.577  -3.643  -2.076  1.00  0.00     0.046 A   
ATOM     14  C4  UNL     1      -0.577  -4.387  -1.816  1.00  0.00     0.021 A   
ATOM     15  CL1 UNL     1       1.633  -3.367  -0.736  1.00  0.00    -0.084 Cl  
BRANCH  10  16
ATOM     16  O1  UNL     1       0.086  -2.882  -5.619  1.00  0.00    -0.361 OA  
ATOM     17  H1  UNL     1      -0.478  -3.374  -6.245  1.00  0.00     0.218 HD  
ENDBRANCH  10  16
ENDBRANCH   8   9
ENDBRANCH   7   8
ENDBRANCH   1   7
BRANCH   3  18
ATOM     18  C11 UNL     1      -0.706   1.081   0.102  1.00  0.00     0.117 C   
BRANCH  18  19
ATOM     19  N2  UNL     1      -0.346   0.553   1.471  1.00  0.00     0.249 N   
ATOM     20  H11 UNL     1      -0.955   0.969   2.181  1.00  0.00     0.199 HD  
ATOM     21  H12 UNL     1       0.611   0.863   1.685  1.00  0.00     0.199 HD  
BRANCH  19  22
ATOM     22  C12 UNL     1      -0.357  -0.932   1.615  1.00  0.00     0.164 C   
BRANCH  22  23
ATOM     23  C13 UNL     1      -0.465  -1.313   3.067  1.00  0.00    -0.002 A   
ATOM     24  C14 UNL     1      -1.739  -1.343   3.696  1.00  0.00     0.012 A   
ATOM     25  C18 UNL     1       0.689  -1.573   3.824  1.00  0.00     0.045 A   
ATOM     26  C15 UNL     1      -1.865  -1.641   5.059  1.00  0.00     0.037 A   
ATOM     27  C17 UNL     1       0.527  -1.868   5.165  1.00  0.00     0.109 A   
ATOM     28  C16 UNL     1      -0.711  -1.900   5.764  1.00  0.00     0.108 A   
ATOM     29  O2  UNL     1       1.535  -2.139   6.038  1.00  0.00    -0.316 OA  
ATOM     30  O3  UNL     1      -0.637  -2.210   7.087  1.00  0.00    -0.316 OA  
ATOM     31  C19 UNL     1       0.785  -2.405   7.248  1.00  0.00     0.337 C   
ENDBRANCH  22  23
ENDBRANCH  19  22
ENDBRANCH  18  19
BRANCH  18  32
ATOM     32  C20 UNL     1      -0.878   2.622   0.201  1.00  0.00     0.043 C   
ATOM     33  C21 UNL     1       0.406   3.387   0.580  1.00  0.00     0.010 C   
ATOM     34  C25 UNL     1      -1.474   3.208  -1.096  1.00  0.00     0.010 C   
ATOM     35  C22 UNL     1       0.139   4.886   0.709  1.00  0.00     0.001 C   
ATOM     36  C24 UNL     1      -1.738   4.710  -0.970  1.00  0.00     0.001 C   
ATOM     37  C23 UNL     1      -0.484   5.471  -0.555  1.00  0.00     0.000 C   
ENDBRANCH  18  32
ENDBRANCH   3  18
TORSDOF 9
