REMARK SMILES c1ncc(Cn2cc([C@@H]([NH2+]Cc3ccc4c(c3)OCO4)C3CCCC3)nn2)cn1
REMARK SMILES IDX 9 1 8 2 6 3 7 4 27 5 26 6 5 8 4 9 1 10 2 11 29 12 3 13 28 14
REMARK SMILES IDX 10 15 11 18 12 19 13 20 17 21 14 22 16 23 15 24 18 25 20 26
REMARK SMILES IDX 19 27 21 28 22 29 25 30 23 31 24 32
REMARK H PARENT 7 7 10 16 10 17
ROOT
ATOM     1   C7  UNL     1       0.687  -0.551   1.129  1.00  0.00     0.117 C   
ENDROOT
BRANCH   1   2
ATOM     2   C6  UNL     1       0.795  -0.614  -0.362  1.00  0.00     0.127 A   
ATOM     3   N2  UNL     1       0.990  -0.310  -2.492  1.00  0.00    -0.208 N   
ATOM     4   C5  UNL     1       1.165   0.328  -1.296  1.00  0.00     0.046 A   
ATOM     5   N5  UNL     1       0.549  -1.569  -2.308  1.00  0.00    -0.076 NA  
ATOM     6   N4  UNL     1       0.419  -1.765  -1.007  1.00  0.00    -0.132 NA  
ATOM     7   H5  UNL     1       1.500   1.354  -1.226  1.00  0.00     0.083 HD  
BRANCH   3   8
ATOM     8   C4  UNL     1       1.207   0.206  -3.833  1.00  0.00     0.172 C   
BRANCH   8   9
ATOM     9   C3  UNL     1      -0.020   0.879  -4.348  1.00  0.00     0.008 A   
ATOM     10  C1  UNL     1      -2.262   2.092  -5.235  1.00  0.00     0.221 A   
ATOM     11  N1  UNL     1      -2.252   0.750  -5.232  1.00  0.00    -0.244 NA  
ATOM     12  N6  UNL     1      -1.256   2.885  -4.831  1.00  0.00    -0.244 NA  
ATOM     13  C2  UNL     1      -1.123   0.172  -4.786  1.00  0.00     0.120 A   
ATOM     14  C21 UNL     1      -0.150   2.253  -4.399  1.00  0.00     0.120 A   
ENDBRANCH   8   9
ENDBRANCH   3   8
ENDBRANCH   1   2
BRANCH   1  15
ATOM     15  N3  UNL     1      -0.523  -1.340   1.572  1.00  0.00     0.249 N   
ATOM     16  H7  UNL     1      -0.308  -1.938   2.374  1.00  0.00     0.199 HD  
ATOM     17  H8  UNL     1      -0.734  -1.990   0.797  1.00  0.00     0.199 HD  
BRANCH  15  18
ATOM     18  C8  UNL     1      -1.754  -0.556   1.872  1.00  0.00     0.164 C   
BRANCH  18  19
ATOM     19  C9  UNL     1      -2.246   0.288   0.730  1.00  0.00    -0.002 A   
ATOM     20  C10 UNL     1      -2.858  -0.310  -0.398  1.00  0.00     0.012 A   
ATOM     21  C14 UNL     1      -2.079   1.685   0.765  1.00  0.00     0.045 A   
ATOM     22  C11 UNL     1      -3.307   0.470  -1.470  1.00  0.00     0.037 A   
ATOM     23  C13 UNL     1      -2.526   2.422  -0.312  1.00  0.00     0.109 A   
ATOM     24  C12 UNL     1      -3.131   1.834  -1.394  1.00  0.00     0.108 A   
ATOM     25  O1  UNL     1      -2.430   3.772  -0.439  1.00  0.00    -0.316 OA  
ATOM     26  O2  UNL     1      -3.519   2.742  -2.326  1.00  0.00    -0.316 OA  
ATOM     27  C15 UNL     1      -3.043   3.969  -1.735  1.00  0.00     0.337 C   
ENDBRANCH  18  19
ENDBRANCH  15  18
ENDBRANCH   1  15
BRANCH   1  28
ATOM     28  C16 UNL     1       1.969  -1.063   1.812  1.00  0.00     0.043 C   
ATOM     29  C17 UNL     1       2.006  -0.848   3.329  1.00  0.00     0.010 C   
ATOM     30  C20 UNL     1       2.274  -2.557   1.683  1.00  0.00     0.010 C   
ATOM     31  C18 UNL     1       3.108  -1.781   3.831  1.00  0.00     0.001 C   
ATOM     32  C19 UNL     1       3.389  -2.768   2.699  1.00  0.00     0.001 C   
ENDBRANCH   1  28
TORSDOF 7
