REMARK SMILES CC(C)C[C@H]([NH2+]Cc1ccc2c(c1)OCO2)c1cn(CCc2cccnc2Cl)nn1
REMARK SMILES IDX 17 1 18 2 19 3 29 4 30 5 5 7 4 8 2 9 1 10 3 11 6 12 7 15
REMARK SMILES IDX 8 16 9 17 13 18 10 19 12 20 11 21 14 22 16 23 15 24 20 25
REMARK SMILES IDX 21 26 22 27 23 28 27 29 24 30 26 31 25 32 28 33
REMARK H PARENT 18 6 6 13 6 14
ROOT
ATOM     1   C14 UNL     1       1.112   0.317  -0.886  1.00  0.00     0.127 A   
ATOM     2   C15 UNL     1       2.346  -0.126  -0.460  1.00  0.00     0.045 A   
ATOM     3   N2  UNL     1       2.891   0.976   0.141  1.00  0.00    -0.212 N   
ATOM     4   N4  UNL     1       2.110   2.055  -0.030  1.00  0.00    -0.076 NA  
ATOM     5   N5  UNL     1       1.009   1.662  -0.650  1.00  0.00    -0.132 NA  
ATOM     6   H20 UNL     1       2.811  -1.103  -0.416  1.00  0.00     0.083 HD  
ENDROOT
BRANCH   1   7
ATOM     7   C5  UNL     1      -0.081  -0.449  -1.353  1.00  0.00     0.114 C   
BRANCH   7   8
ATOM     8   C4  UNL     1      -0.516  -0.074  -2.781  1.00  0.00     0.064 C   
BRANCH   8   9
ATOM     9   C2  UNL     1       0.520  -0.402  -3.879  1.00  0.00    -0.012 C   
ATOM     10  C1  UNL     1       0.015   0.106  -5.233  1.00  0.00     0.007 C   
ATOM     11  C3  UNL     1       0.817  -1.901  -3.968  1.00  0.00     0.007 C   
ENDBRANCH   8   9
ENDBRANCH   7   8
BRANCH   7  12
ATOM     12  N1  UNL     1      -1.215  -0.150  -0.404  1.00  0.00     0.249 N   
ATOM     13  H11 UNL     1      -0.817  -0.023   0.541  1.00  0.00     0.199 HD  
ATOM     14  H12 UNL     1      -1.599   0.781  -0.621  1.00  0.00     0.199 HD  
BRANCH  12  15
ATOM     15  C6  UNL     1      -2.289  -1.165  -0.304  1.00  0.00     0.164 C   
BRANCH  15  16
ATOM     16  C7  UNL     1      -3.421  -0.666   0.548  1.00  0.00    -0.002 A   
ATOM     17  C8  UNL     1      -4.515   0.009  -0.048  1.00  0.00     0.012 A   
ATOM     18  C12 UNL     1      -3.380  -0.821   1.945  1.00  0.00     0.045 A   
ATOM     19  C9  UNL     1      -5.566   0.508   0.732  1.00  0.00     0.037 A   
ATOM     20  C11 UNL     1      -4.431  -0.315   2.685  1.00  0.00     0.109 A   
ATOM     21  C10 UNL     1      -5.494   0.328   2.096  1.00  0.00     0.108 A   
ATOM     22  O1  UNL     1      -4.547  -0.379   4.038  1.00  0.00    -0.316 OA  
ATOM     23  O2  UNL     1      -6.415   0.746   3.003  1.00  0.00    -0.316 OA  
ATOM     24  C13 UNL     1      -5.822   0.276   4.234  1.00  0.00     0.337 C   
ENDBRANCH  15  16
ENDBRANCH  12  15
ENDBRANCH   7  12
ENDBRANCH   1   7
BRANCH   3  25
ATOM     25  C16 UNL     1       3.993   1.009   1.083  1.00  0.00     0.139 C   
BRANCH  25  26
ATOM     26  C17 UNL     1       3.529   0.819   2.538  1.00  0.00     0.060 C   
BRANCH  26  27
ATOM     27  C18 UNL     1       2.888  -0.531   2.789  1.00  0.00    -0.009 A   
ATOM     28  C19 UNL     1       3.702  -1.663   2.933  1.00  0.00     0.008 A   
ATOM     29  C22 UNL     1       1.507  -0.751   2.803  1.00  0.00     0.132 A   
ATOM     30  C20 UNL     1       3.128  -2.925   3.075  1.00  0.00     0.020 A   
ATOM     31  N3  UNL     1       0.920  -1.970   2.872  1.00  0.00    -0.244 NA  
ATOM     32  C21 UNL     1       1.746  -3.028   3.040  1.00  0.00     0.113 A   
ATOM     33  CL1 UNL     1       0.335   0.501   2.641  1.00  0.00    -0.062 Cl  
ENDBRANCH  26  27
ENDBRANCH  25  26
ENDBRANCH   3  25
TORSDOF 9
