REMARK SMILES O=C(c1ccc(O)cc1)n1cc([C@@H]([NH2+]Cc2ccc3c(c2)OCO3)C2CCCC2)nn1
REMARK SMILES IDX 10 1 11 2 12 3 30 4 31 5 2 6 1 7 3 8 4 9 9 10 5 11 8 12 6 13
REMARK SMILES IDX 7 14 13 16 14 17 15 20 16 21 17 22 21 23 18 24 20 25 19 26
REMARK SMILES IDX 22 27 24 28 23 29 25 30 26 31 29 32 27 33 28 34
REMARK H PARENT 7 15 14 18 14 19
ROOT
ATOM     1   N1  UNL     1       2.496   1.462  -1.190  1.00  0.00    -0.143 N   
ATOM     2   C8  UNL     1       2.526   0.090  -1.001  1.00  0.00     0.139 A   
ATOM     3   C9  UNL     1       1.227  -0.262  -0.724  1.00  0.00     0.128 A   
ATOM     4   N3  UNL     1       0.451   0.866  -0.726  1.00  0.00    -0.131 NA  
ATOM     5   N4  UNL     1       1.229   1.904  -0.990  1.00  0.00    -0.068 NA  
ENDROOT
BRANCH   1   6
ATOM     6   C1  UNL     1       3.569   2.322  -1.475  1.00  0.00     0.271 C   
ATOM     7   O1  UNL     1       4.680   1.793  -1.497  1.00  0.00    -0.269 OA  
BRANCH   6   8
ATOM     8   C2  UNL     1       3.472   3.788  -1.721  1.00  0.00     0.040 A   
ATOM     9   C3  UNL     1       2.344   4.384  -2.297  1.00  0.00     0.016 A   
ATOM     10  C7  UNL     1       4.582   4.585  -1.397  1.00  0.00     0.016 A   
ATOM     11  C4  UNL     1       2.319   5.764  -2.516  1.00  0.00     0.034 A   
ATOM     12  C6  UNL     1       4.555   5.965  -1.618  1.00  0.00     0.034 A   
ATOM     13  C5  UNL     1       3.420   6.542  -2.173  1.00  0.00     0.071 A   
BRANCH  13  14
ATOM     14  O2  UNL     1       3.343   7.881  -2.409  1.00  0.00    -0.361 OA  
ATOM     15  H3  UNL     1       4.181   8.300  -2.155  1.00  0.00     0.218 HD  
ENDBRANCH  13  14
ENDBRANCH   6   8
ENDBRANCH   1   6
BRANCH   3  16
ATOM     16  C10 UNL     1       0.608  -1.592  -0.422  1.00  0.00     0.117 C   
BRANCH  16  17
ATOM     17  N2  UNL     1      -0.647  -1.413   0.389  1.00  0.00     0.249 N   
ATOM     18  H8  UNL     1      -1.283  -2.212   0.298  1.00  0.00     0.199 HD  
ATOM     19  H9  UNL     1      -1.151  -0.606  -0.009  1.00  0.00     0.199 HD  
BRANCH  17  20
ATOM     20  C11 UNL     1      -0.436  -1.127   1.835  1.00  0.00     0.164 C   
BRANCH  20  21
ATOM     21  C12 UNL     1      -1.752  -0.896   2.520  1.00  0.00    -0.002 A   
ATOM     22  C13 UNL     1      -2.424  -1.963   3.162  1.00  0.00     0.012 A   
ATOM     23  C17 UNL     1      -2.351   0.376   2.478  1.00  0.00     0.045 A   
ATOM     24  C14 UNL     1      -3.672  -1.766   3.765  1.00  0.00     0.037 A   
ATOM     25  C16 UNL     1      -3.581   0.535   3.081  1.00  0.00     0.109 A   
ATOM     26  C15 UNL     1      -4.223  -0.505   3.707  1.00  0.00     0.108 A   
ATOM     27  O3  UNL     1      -4.294   1.690   3.131  1.00  0.00    -0.316 OA  
ATOM     28  O4  UNL     1      -5.420  -0.135   4.231  1.00  0.00    -0.316 OA  
ATOM     29  C18 UNL     1      -5.453   1.266   3.884  1.00  0.00     0.337 C   
ENDBRANCH  20  21
ENDBRANCH  17  20
ENDBRANCH  16  17
BRANCH  16  30
ATOM     30  C19 UNL     1       0.307  -2.386  -1.709  1.00  0.00     0.043 C   
ATOM     31  C20 UNL     1      -0.112  -3.850  -1.468  1.00  0.00     0.010 C   
ATOM     32  C23 UNL     1      -0.789  -1.808  -2.615  1.00  0.00     0.010 C   
ATOM     33  C21 UNL     1      -1.242  -4.140  -2.455  1.00  0.00     0.001 C   
ATOM     34  C22 UNL     1      -1.198  -3.002  -3.462  1.00  0.00     0.001 C   
ENDBRANCH  16  30
ENDBRANCH   3  16
TORSDOF 8
