REMARK SMILES Cn1ccc2c(Cn3cc([C@@H]([NH2+]Cc4ccc5c(c4)OCO5)C(C)(C)C)nn3)cccc21
REMARK SMILES IDX 8 1 9 2 10 3 27 4 28 5 7 7 6 8 2 9 3 10 32 11 4 12 5 13
REMARK SMILES IDX 31 14 30 15 29 16 1 17 11 18 12 19 13 22 14 23 15 24 19 25
REMARK SMILES IDX 16 26 18 27 17 28 20 29 22 30 21 31 23 32 24 33 25 34 26 35
REMARK H PARENT 9 6 12 20 12 21
ROOT
ATOM     1   N2  UNL     1      -2.639   0.432  -1.030  1.00  0.00    -0.208 N   
ATOM     2   C7  UNL     1      -2.071  -0.494  -0.196  1.00  0.00     0.046 A   
ATOM     3   C8  UNL     1      -2.032   0.141   1.025  1.00  0.00     0.127 A   
ATOM     4   N4  UNL     1      -2.635   1.368   0.915  1.00  0.00    -0.132 NA  
ATOM     5   N5  UNL     1      -3.013   1.529  -0.343  1.00  0.00    -0.076 NA  
ATOM     6   H8  UNL     1      -1.678  -1.435  -0.557  1.00  0.00     0.083 HD  
ENDROOT
BRANCH   1   7
ATOM     7   C6  UNL     1      -2.711   0.402  -2.484  1.00  0.00     0.170 C   
BRANCH   7   8
ATOM     8   C5  UNL     1      -1.339   0.163  -3.074  1.00  0.00    -0.019 A   
ATOM     9   N1  UNL     1       1.833   1.819  -3.150  1.00  0.00    -0.310 N   
ATOM     10  C2  UNL     1       1.154   2.789  -2.463  1.00  0.00     0.075 A   
ATOM     11  C25 UNL     1       0.993   0.763  -3.441  1.00  0.00     0.040 A   
ATOM     12  C3  UNL     1      -0.148   2.371  -2.322  1.00  0.00     0.026 A   
ATOM     13  C4  UNL     1      -0.267   1.085  -2.929  1.00  0.00     0.002 A   
ATOM     14  C24 UNL     1       1.241  -0.441  -4.115  1.00  0.00     0.024 A   
ATOM     15  C23 UNL     1       0.180  -1.332  -4.273  1.00  0.00     0.002 A   
ATOM     16  C22 UNL     1      -1.083  -1.040  -3.765  1.00  0.00     0.006 A   
ATOM     17  C1  UNL     1       3.228   1.896  -3.525  1.00  0.00     0.136 C   
ENDBRANCH   7   8
ENDBRANCH   1   7
BRANCH   3  18
ATOM     18  C9  UNL     1      -1.331  -0.234   2.292  1.00  0.00     0.120 C   
BRANCH  18  19
ATOM     19  N3  UNL     1      -0.557   0.970   2.798  1.00  0.00     0.250 N   
ATOM     20  H10 UNL     1      -1.240   1.735   2.882  1.00  0.00     0.199 HD  
ATOM     21  H11 UNL     1      -0.172   0.794   3.727  1.00  0.00     0.199 HD  
BRANCH  19  22
ATOM     22  C10 UNL     1       0.540   1.477   1.913  1.00  0.00     0.164 C   
BRANCH  22  23
ATOM     23  C11 UNL     1       1.660   0.491   1.729  1.00  0.00    -0.002 A   
ATOM     24  C12 UNL     1       2.552   0.208   2.791  1.00  0.00     0.012 A   
ATOM     25  C16 UNL     1       1.814  -0.176   0.501  1.00  0.00     0.045 A   
ATOM     26  C13 UNL     1       3.578  -0.731   2.636  1.00  0.00     0.037 A   
ATOM     27  C15 UNL     1       2.833  -1.098   0.383  1.00  0.00     0.109 A   
ATOM     28  C14 UNL     1       3.689  -1.369   1.420  1.00  0.00     0.108 A   
ATOM     29  O1  UNL     1       3.110  -1.834  -0.725  1.00  0.00    -0.316 OA  
ATOM     30  O2  UNL     1       4.616  -2.306   1.096  1.00  0.00    -0.316 OA  
ATOM     31  C17 UNL     1       4.255  -2.591  -0.272  1.00  0.00     0.337 C   
ENDBRANCH  22  23
ENDBRANCH  19  22
ENDBRANCH  18  19
BRANCH  18  32
ATOM     32  C18 UNL     1      -2.274  -0.794   3.413  1.00  0.00     0.010 C   
ATOM     33  C19 UNL     1      -1.438  -1.292   4.615  1.00  0.00     0.017 C   
ATOM     34  C20 UNL     1      -3.062  -2.011   2.876  1.00  0.00     0.017 C   
ATOM     35  C21 UNL     1      -3.286   0.247   3.930  1.00  0.00     0.017 C   
ENDBRANCH  18  32
ENDBRANCH   3  18
TORSDOF 7
