REMARK SMILES CCOc1nccc(-n2cc([C@@H]([NH2+]Cc3ccc4c(c3)OCO4)C3CCCCC3)nn2)c1F
REMARK SMILES IDX 9 1 10 2 11 3 30 4 31 5 8 6 4 7 5 8 32 9 6 10 7 11 33 12
REMARK SMILES IDX 3 13 2 14 1 15 12 16 13 17 14 20 15 21 16 22 20 23 17 24
REMARK SMILES IDX 19 25 18 26 21 27 23 28 22 29 24 30 25 31 29 32 26 33 28 34
REMARK SMILES IDX 27 35
REMARK H PARENT 13 18 13 19
ROOT
ATOM     1   N2  UNL     1      -0.328  -2.712  -0.689  1.00  0.00    -0.177 N   
ATOM     2   C7  UNL     1      -0.271  -1.333  -0.717  1.00  0.00     0.135 A   
ATOM     3   C8  UNL     1       0.790  -0.993   0.092  1.00  0.00     0.127 A   
ATOM     4   N4  UNL     1       1.336  -2.132   0.608  1.00  0.00    -0.131 NA  
ATOM     5   N5  UNL     1       0.655  -3.163   0.137  1.00  0.00    -0.071 NA  
ENDROOT
BRANCH   1   6
ATOM     6   C6  UNL     1      -1.216  -3.603  -1.331  1.00  0.00     0.099 A   
ATOM     7   C3  UNL     1      -3.096  -4.081  -2.729  1.00  0.00     0.205 A   
ATOM     8   N1  UNL     1      -2.966  -5.416  -2.561  1.00  0.00    -0.230 NA  
ATOM     9   C24 UNL     1      -2.251  -3.147  -2.141  1.00  0.00     0.196 A   
ATOM     10  C4  UNL     1      -1.952  -5.839  -1.779  1.00  0.00     0.116 A   
ATOM     11  C5  UNL     1      -1.060  -4.984  -1.150  1.00  0.00     0.049 A   
ATOM     12  F1  UNL     1      -2.453  -1.840  -2.365  1.00  0.00    -0.200 F   
BRANCH   7  13
ATOM     13  O1  UNL     1      -4.120  -3.586  -3.513  1.00  0.00    -0.327 OA  
BRANCH  13  14
ATOM     14  C2  UNL     1      -4.968  -4.601  -4.055  1.00  0.00     0.166 C   
ATOM     15  C1  UNL     1      -6.061  -3.917  -4.858  1.00  0.00     0.035 C   
ENDBRANCH  13  14
ENDBRANCH   7  13
ENDBRANCH   1   6
BRANCH   3  16
ATOM     16  C9  UNL     1       1.331   0.342   0.492  1.00  0.00     0.117 C   
BRANCH  16  17
ATOM     17  N3  UNL     1       1.826   0.306   1.924  1.00  0.00     0.249 N   
ATOM     18  H10 UNL     1       2.375   1.147   2.123  1.00  0.00     0.199 HD  
ATOM     19  H11 UNL     1       2.462  -0.500   1.997  1.00  0.00     0.199 HD  
BRANCH  17  20
ATOM     20  C10 UNL     1       0.789   0.138   2.986  1.00  0.00     0.164 C   
BRANCH  20  21
ATOM     21  C11 UNL     1      -0.166   1.295   3.068  1.00  0.00    -0.002 A   
ATOM     22  C12 UNL     1       0.253   2.537   3.603  1.00  0.00     0.012 A   
ATOM     23  C16 UNL     1      -1.478   1.159   2.580  1.00  0.00     0.045 A   
ATOM     24  C13 UNL     1      -0.618   3.631   3.643  1.00  0.00     0.037 A   
ATOM     25  C15 UNL     1      -2.310   2.257   2.634  1.00  0.00     0.109 A   
ATOM     26  C14 UNL     1      -1.893   3.459   3.148  1.00  0.00     0.108 A   
ATOM     27  O2  UNL     1      -3.594   2.297   2.197  1.00  0.00    -0.316 OA  
ATOM     28  O3  UNL     1      -2.863   4.407   3.102  1.00  0.00    -0.316 OA  
ATOM     29  C17 UNL     1      -3.954   3.658   2.525  1.00  0.00     0.337 C   
ENDBRANCH  20  21
ENDBRANCH  17  20
ENDBRANCH  16  17
BRANCH  16  30
ATOM     30  C18 UNL     1       2.488   0.860  -0.409  1.00  0.00     0.043 C   
ATOM     31  C19 UNL     1       3.728  -0.056  -0.443  1.00  0.00     0.010 C   
ATOM     32  C23 UNL     1       2.004   1.151  -1.844  1.00  0.00     0.010 C   
ATOM     33  C20 UNL     1       4.837   0.530  -1.315  1.00  0.00     0.001 C   
ATOM     34  C22 UNL     1       3.118   1.738  -2.709  1.00  0.00     0.001 C   
ATOM     35  C21 UNL     1       4.347   0.836  -2.727  1.00  0.00     0.000 C   
ENDBRANCH  16  30
ENDBRANCH   3  16
TORSDOF 8
