REMARK SMILES Cc1cc(=[N+]2C=C([C@@H]([NH2+]Cc3ccc4c(c3)OCO4)C(C)(C)C)N=N2)cc(C)n1C
REMARK SMILES IDX 8 1 7 2 5 3 6 4 25 5 24 6 4 7 2 8 3 9 29 10 27 11 26 12 1 13
REMARK SMILES IDX 30 14 28 15 9 16 10 19 11 20 12 21 16 22 13 23 15 24 14 25
REMARK SMILES IDX 17 26 19 27 18 28 20 29 21 30 22 31 23 32
REMARK H PARENT 9 17 9 18
ROOT
ATOM     1   C7  UNL     1       1.906   0.853  -2.080  1.00  0.00     0.120 C   
ENDROOT
BRANCH   1   2
ATOM     2   C6  UNL     1       1.017  -0.091  -1.315  1.00  0.00     0.128 C   
ATOM     3   N1  UNL     1      -0.293  -1.146   0.086  1.00  0.00    -0.181 N   
ATOM     4   C5  UNL     1       0.162   0.113  -0.251  1.00  0.00     0.135 C   
ATOM     5   N4  UNL     1       0.267  -2.056  -0.747  1.00  0.00    -0.071 NA  
ATOM     6   N3  UNL     1       1.065  -1.429  -1.594  1.00  0.00    -0.131 NA  
BRANCH   3   7
ATOM     7   C4  UNL     1      -1.189  -1.542   1.115  1.00  0.00     0.061 A   
ATOM     8   C2  UNL     1      -2.663  -1.052   2.980  1.00  0.00     0.008 A   
ATOM     9   C3  UNL     1      -1.773  -0.622   1.977  1.00  0.00     0.045 A   
ATOM     10  N5  UNL     1      -2.927  -2.386   3.136  1.00  0.00    -0.311 N   
ATOM     11  C21 UNL     1      -2.399  -3.305   2.272  1.00  0.00     0.008 A   
ATOM     12  C20 UNL     1      -1.510  -2.889   1.269  1.00  0.00     0.045 A   
ATOM     13  C1  UNL     1      -3.292  -0.020   3.880  1.00  0.00     0.062 C   
ATOM     14  C23 UNL     1      -3.814  -2.842   4.241  1.00  0.00     0.135 C   
ATOM     15  C22 UNL     1      -2.731  -4.771   2.382  1.00  0.00     0.062 C   
ENDBRANCH   3   7
ENDBRANCH   1   2
BRANCH   1  16
ATOM     16  N2  UNL     1       3.253   0.184  -2.296  1.00  0.00     0.250 N   
ATOM     17  H7  UNL     1       3.071  -0.831  -2.348  1.00  0.00     0.199 HD  
ATOM     18  H8  UNL     1       3.652   0.430  -3.207  1.00  0.00     0.199 HD  
BRANCH  16  19
ATOM     19  C8  UNL     1       4.297   0.425  -1.254  1.00  0.00     0.164 C   
BRANCH  19  20
ATOM     20  C9  UNL     1       3.894  -0.012   0.128  1.00  0.00    -0.002 A   
ATOM     21  C10 UNL     1       3.800  -1.389   0.447  1.00  0.00     0.012 A   
ATOM     22  C14 UNL     1       3.559   0.945   1.102  1.00  0.00     0.045 A   
ATOM     23  C11 UNL     1       3.356  -1.810   1.706  1.00  0.00     0.037 A   
ATOM     24  C13 UNL     1       3.131   0.496   2.334  1.00  0.00     0.109 A   
ATOM     25  C12 UNL     1       3.025  -0.842   2.627  1.00  0.00     0.108 A   
ATOM     26  O1  UNL     1       2.753   1.284   3.375  1.00  0.00    -0.316 OA  
ATOM     27  O2  UNL     1       2.562  -1.059   3.886  1.00  0.00    -0.316 OA  
ATOM     28  C15 UNL     1       2.542   0.290   4.403  1.00  0.00     0.337 C   
ENDBRANCH  19  20
ENDBRANCH  16  19
ENDBRANCH   1  16
BRANCH   1  29
ATOM     29  C16 UNL     1       1.303   1.332  -3.447  1.00  0.00     0.010 C   
ATOM     30  C17 UNL     1       2.209   2.414  -4.080  1.00  0.00     0.017 C   
ATOM     31  C18 UNL     1      -0.081   1.984  -3.217  1.00  0.00     0.017 C   
ATOM     32  C19 UNL     1       1.132   0.184  -4.462  1.00  0.00     0.017 C   
ENDBRANCH   1  29
TORSDOF 6
