REMARK SMILES CC(C)(C)[C@H]([NH2+]Cc1ccc2c(c1)OCO2)c1cn(Cc2cccc(N)c2)nn1
REMARK SMILES IDX 17 1 18 2 19 3 28 4 29 5 5 7 2 8 1 9 3 10 4 11 6 12 7 15
REMARK SMILES IDX 8 16 9 17 13 18 10 19 12 20 11 21 14 22 16 23 15 24 20 25
REMARK SMILES IDX 21 26 22 27 27 28 23 29 25 30 24 31 26 32
REMARK H PARENT 18 6 6 13 6 14 26 33 26 34
ROOT
ATOM     1   C14 UNL     1       0.510  -0.179  -1.706  1.00  0.00     0.127 A   
ATOM     2   C15 UNL     1      -0.820   0.159  -1.590  1.00  0.00     0.046 A   
ATOM     3   N2  UNL     1      -1.464  -0.764  -2.368  1.00  0.00    -0.208 N   
ATOM     4   N4  UNL     1      -0.580  -1.581  -2.973  1.00  0.00    -0.076 NA  
ATOM     5   N5  UNL     1       0.633  -1.232  -2.575  1.00  0.00    -0.132 NA  
ATOM     6   H20 UNL     1      -1.351   0.887  -0.993  1.00  0.00     0.083 HD  
ENDROOT
BRANCH   1   7
ATOM     7   C5  UNL     1       1.705   0.318  -0.956  1.00  0.00     0.120 C   
BRANCH   7   8
ATOM     8   C2  UNL     1       2.591   1.337  -1.756  1.00  0.00     0.010 C   
ATOM     9   C1  UNL     1       3.719   1.892  -0.854  1.00  0.00     0.017 C   
ATOM     10  C3  UNL     1       3.241   0.721  -3.010  1.00  0.00     0.017 C   
ATOM     11  C4  UNL     1       1.732   2.544  -2.199  1.00  0.00     0.017 C   
ENDBRANCH   7   8
BRANCH   7  12
ATOM     12  N1  UNL     1       2.541  -0.861  -0.490  1.00  0.00     0.250 N   
ATOM     13  H11 UNL     1       3.394  -0.539  -0.030  1.00  0.00     0.199 HD  
ATOM     14  H12 UNL     1       2.817  -1.379  -1.334  1.00  0.00     0.199 HD  
BRANCH  12  15
ATOM     15  C6  UNL     1       1.863  -1.852   0.410  1.00  0.00     0.164 C   
BRANCH  15  16
ATOM     16  C7  UNL     1       1.291  -1.246   1.661  1.00  0.00    -0.002 A   
ATOM     17  C8  UNL     1      -0.111  -1.229   1.861  1.00  0.00     0.012 A   
ATOM     18  C12 UNL     1       2.134  -0.677   2.631  1.00  0.00     0.045 A   
ATOM     19  C9  UNL     1      -0.670  -0.640   3.000  1.00  0.00     0.037 A   
ATOM     20  C11 UNL     1       1.550  -0.104   3.742  1.00  0.00     0.109 A   
ATOM     21  C10 UNL     1       0.188  -0.084   3.921  1.00  0.00     0.108 A   
ATOM     22  O1  UNL     1       2.217   0.495   4.762  1.00  0.00    -0.316 OA  
ATOM     23  O2  UNL     1      -0.172   0.530   5.078  1.00  0.00    -0.316 OA  
ATOM     24  C13 UNL     1       1.119   0.868   5.627  1.00  0.00     0.337 C   
ENDBRANCH  15  16
ENDBRANCH  12  15
ENDBRANCH   7  12
ENDBRANCH   1   7
BRANCH   3  25
ATOM     25  C16 UNL     1      -2.893  -1.009  -2.459  1.00  0.00     0.169 C   
BRANCH  25  26
ATOM     26  C17 UNL     1      -3.368  -1.730  -1.220  1.00  0.00    -0.027 A   
ATOM     27  C18 UNL     1      -3.246  -3.122  -1.121  1.00  0.00     0.005 A   
ATOM     28  C22 UNL     1      -3.857  -1.009  -0.117  1.00  0.00     0.028 A   
ATOM     29  C19 UNL     1      -3.584  -3.773   0.064  1.00  0.00     0.002 A   
ATOM     30  C21 UNL     1      -4.242  -1.660   1.059  1.00  0.00     0.024 A   
ATOM     31  C20 UNL     1      -4.053  -3.039   1.155  1.00  0.00     0.023 A   
BRANCH  30  32
ATOM     32  N3  UNL     1      -4.581  -0.914   2.195  1.00  0.00    -0.358 N   
ATOM     33  H26 UNL     1      -5.116  -1.444   2.879  1.00  0.00     0.143 HD  
ATOM     34  H27 UNL     1      -5.037  -0.030   1.985  1.00  0.00     0.143 HD  
ENDBRANCH  30  32
ENDBRANCH  25  26
ENDBRANCH   3  25
TORSDOF 8
