REMARK SMILES CC(C)[C@H]([NH2+]Cc1ccc2c(c1)OCO2)c1cn([C@H](CO)c2ccncc2)nn1
REMARK SMILES IDX 16 1 17 2 18 3 28 4 29 5 4 7 2 8 1 9 3 10 5 11 6 14 7 15
REMARK SMILES IDX 8 16 12 17 9 18 11 19 10 20 13 21 15 22 14 23 19 24 20 25
REMARK SMILES IDX 21 26 22 28 23 29 27 30 24 31 26 32 25 33
REMARK H PARENT 17 6 5 12 5 13 21 27
ROOT
ATOM     1   C13 UNL     1      -0.377  -1.272  -1.114  1.00  0.00     0.127 A   
ATOM     2   C14 UNL     1      -0.206  -0.014  -1.643  1.00  0.00     0.046 A   
ATOM     3   N2  UNL     1      -1.480   0.460  -1.809  1.00  0.00    -0.202 N   
ATOM     4   N4  UNL     1      -2.381  -0.466  -1.418  1.00  0.00    -0.075 NA  
ATOM     5   N5  UNL     1      -1.717  -1.532  -0.998  1.00  0.00    -0.132 NA  
ATOM     6   H18 UNL     1       0.666   0.585  -1.868  1.00  0.00     0.083 HD  
ENDROOT
BRANCH   1   7
ATOM     7   C4  UNL     1       0.629  -2.240  -0.590  1.00  0.00     0.117 C   
BRANCH   7   8
ATOM     8   C2  UNL     1       0.999  -3.378  -1.578  1.00  0.00     0.037 C   
ATOM     9   C1  UNL     1       1.702  -2.827  -2.825  1.00  0.00     0.014 C   
ATOM     10  C3  UNL     1      -0.177  -4.265  -2.000  1.00  0.00     0.014 C   
ENDBRANCH   7   8
BRANCH   7  11
ATOM     11  N1  UNL     1       0.158  -2.862   0.709  1.00  0.00     0.249 N   
ATOM     12  H9  UNL     1      -0.732  -3.335   0.507  1.00  0.00     0.199 HD  
ATOM     13  H10 UNL     1       0.827  -3.575   1.012  1.00  0.00     0.199 HD  
BRANCH  11  14
ATOM     14  C5  UNL     1      -0.112  -1.923   1.845  1.00  0.00     0.164 C   
BRANCH  14  15
ATOM     15  C6  UNL     1       1.051  -1.041   2.202  1.00  0.00    -0.002 A   
ATOM     16  C7  UNL     1       0.977   0.355   1.973  1.00  0.00     0.012 A   
ATOM     17  C11 UNL     1       2.224  -1.589   2.748  1.00  0.00     0.045 A   
ATOM     18  C8  UNL     1       2.055   1.194   2.272  1.00  0.00     0.037 A   
ATOM     19  C10 UNL     1       3.270  -0.734   3.028  1.00  0.00     0.109 A   
ATOM     20  C9  UNL     1       3.190   0.617   2.796  1.00  0.00     0.108 A   
ATOM     21  O1  UNL     1       4.471  -1.102   3.548  1.00  0.00    -0.316 OA  
ATOM     22  O2  UNL     1       4.330   1.270   3.141  1.00  0.00    -0.316 OA  
ATOM     23  C12 UNL     1       5.129   0.182   3.650  1.00  0.00     0.337 C   
ENDBRANCH  14  15
ENDBRANCH  11  14
ENDBRANCH   7  11
ENDBRANCH   1   7
BRANCH   3  24
ATOM     24  C15 UNL     1      -1.912   1.812  -2.162  1.00  0.00     0.155 C   
BRANCH  24  25
ATOM     25  C16 UNL     1      -1.588   2.162  -3.629  1.00  0.00     0.185 C   
BRANCH  25  26
ATOM     26  O3  UNL     1      -0.198   2.073  -3.942  1.00  0.00    -0.394 OA  
ATOM     27  H22 UNL     1      -0.100   2.330  -4.878  1.00  0.00     0.210 HD  
ENDBRANCH  25  26
ENDBRANCH  24  25
BRANCH  24  28
ATOM     28  C17 UNL     1      -1.444   2.787  -1.087  1.00  0.00    -0.020 A   
ATOM     29  C18 UNL     1      -0.259   3.525  -1.185  1.00  0.00     0.026 A   
ATOM     30  C21 UNL     1      -2.195   2.913   0.093  1.00  0.00     0.026 A   
ATOM     31  C19 UNL     1       0.123   4.326  -0.119  1.00  0.00     0.111 A   
ATOM     32  C20 UNL     1      -1.732   3.742   1.103  1.00  0.00     0.111 A   
ATOM     33  N3  UNL     1      -0.580   4.435   1.026  1.00  0.00    -0.265 NA  
ENDBRANCH  24  28
ENDBRANCH   3  24
TORSDOF 9
