REMARK SMILES CC(C)[C@H]([NH2+]Cc1ccc2c(c1)OCO2)c1cn([C@@H](CO)c2ccncc2)nn1
REMARK SMILES IDX 16 1 17 2 18 3 28 4 29 5 4 7 2 8 1 9 3 10 5 11 6 14 7 15
REMARK SMILES IDX 8 16 12 17 9 18 11 19 10 20 13 21 15 22 14 23 19 24 20 25
REMARK SMILES IDX 21 26 22 28 23 29 27 30 24 31 26 32 25 33
REMARK H PARENT 17 6 5 12 5 13 21 27
ROOT
ATOM     1   C13 UNL     1      -0.031  -0.111   0.073  1.00  0.00     0.127 A   
ATOM     2   C14 UNL     1       0.181  -1.409   0.475  1.00  0.00     0.046 A   
ATOM     3   N2  UNL     1      -0.320  -1.451   1.750  1.00  0.00    -0.202 N   
ATOM     4   N4  UNL     1      -0.841  -0.254   2.094  1.00  0.00    -0.075 NA  
ATOM     5   N5  UNL     1      -0.667   0.574   1.076  1.00  0.00    -0.132 NA  
ATOM     6   H18 UNL     1       0.629  -2.272   0.002  1.00  0.00     0.083 HD  
ENDROOT
BRANCH   1   7
ATOM     7   C4  UNL     1       0.288   0.579  -1.215  1.00  0.00     0.117 C   
BRANCH   7   8
ATOM     8   C2  UNL     1       1.747   1.107  -1.245  1.00  0.00     0.037 C   
ATOM     9   C1  UNL     1       2.007   2.279  -0.292  1.00  0.00     0.014 C   
ATOM     10  C3  UNL     1       2.181   1.488  -2.665  1.00  0.00     0.014 C   
ENDBRANCH   7   8
BRANCH   7  11
ATOM     11  N1  UNL     1      -0.681   1.703  -1.460  1.00  0.00     0.249 N   
ATOM     12  H9  UNL     1      -0.317   2.391  -2.126  1.00  0.00     0.199 HD  
ATOM     13  H10 UNL     1      -0.789   2.199  -0.562  1.00  0.00     0.199 HD  
BRANCH  11  14
ATOM     14  C5  UNL     1      -2.041   1.279  -1.893  1.00  0.00     0.164 C   
BRANCH  14  15
ATOM     15  C6  UNL     1      -2.948   2.469  -2.026  1.00  0.00    -0.002 A   
ATOM     16  C7  UNL     1      -3.143   3.087  -3.284  1.00  0.00     0.012 A   
ATOM     17  C11 UNL     1      -3.572   3.004  -0.884  1.00  0.00     0.045 A   
ATOM     18  C8  UNL     1      -3.957   4.218  -3.409  1.00  0.00     0.037 A   
ATOM     19  C10 UNL     1      -4.368   4.120  -1.042  1.00  0.00     0.109 A   
ATOM     20  C9  UNL     1      -4.555   4.710  -2.269  1.00  0.00     0.108 A   
ATOM     21  O1  UNL     1      -5.037   4.764  -0.050  1.00  0.00    -0.316 OA  
ATOM     22  O2  UNL     1      -5.371   5.794  -2.205  1.00  0.00    -0.316 OA  
ATOM     23  C12 UNL     1      -5.697   5.811  -0.798  1.00  0.00     0.337 C   
ENDBRANCH  14  15
ENDBRANCH  11  14
ENDBRANCH   7  11
ENDBRANCH   1   7
BRANCH   3  24
ATOM     24  C15 UNL     1      -0.335  -2.564   2.704  1.00  0.00     0.155 C   
BRANCH  24  25
ATOM     25  C16 UNL     1      -1.573  -3.456   2.481  1.00  0.00     0.185 C   
BRANCH  25  26
ATOM     26  O3  UNL     1      -1.649  -3.984   1.155  1.00  0.00    -0.394 OA  
ATOM     27  H22 UNL     1      -2.440  -4.554   1.119  1.00  0.00     0.210 HD  
ENDBRANCH  25  26
ENDBRANCH  24  25
BRANCH  24  28
ATOM     28  C17 UNL     1       1.024  -3.253   2.750  1.00  0.00    -0.020 A   
ATOM     29  C18 UNL     1       1.291  -4.471   2.113  1.00  0.00     0.026 A   
ATOM     30  C21 UNL     1       2.084  -2.630   3.433  1.00  0.00     0.026 A   
ATOM     31  C19 UNL     1       2.574  -4.999   2.175  1.00  0.00     0.111 A   
ATOM     32  C20 UNL     1       3.332  -3.237   3.439  1.00  0.00     0.111 A   
ATOM     33  N3  UNL     1       3.598  -4.402   2.817  1.00  0.00    -0.265 NA  
ENDBRANCH  24  28
ENDBRANCH   3  24
TORSDOF 9
