REMARK SMILES CCn1nccc1CCn1cc([C@@H]([NH2+]Cc2ccc3c(c2)OCO3)C(C)C)nn1
REMARK SMILES IDX 10 1 11 2 12 3 28 4 29 5 9 7 8 8 7 9 3 10 4 11 5 12 6 13
REMARK SMILES IDX 2 14 1 15 13 16 14 17 15 20 16 21 17 22 21 23 18 24 20 25
REMARK SMILES IDX 19 26 22 27 24 28 23 29 25 30 26 31 27 32
REMARK H PARENT 11 6 14 18 14 19
ROOT
ATOM     1   N3  UNL     1       1.698   1.397   2.043  1.00  0.00    -0.212 N   
ATOM     2   C8  UNL     1       1.691   1.740   0.716  1.00  0.00     0.045 A   
ATOM     3   C9  UNL     1       1.550   0.528   0.073  1.00  0.00     0.127 A   
ATOM     4   N5  UNL     1       1.697  -0.478   0.990  1.00  0.00    -0.132 NA  
ATOM     5   N6  UNL     1       1.796   0.067   2.194  1.00  0.00    -0.076 NA  
ATOM     6   H12 UNL     1       1.624   2.769   0.393  1.00  0.00     0.083 HD  
ENDROOT
BRANCH   1   7
ATOM     7   C7  UNL     1       1.294   2.243   3.154  1.00  0.00     0.140 C   
BRANCH   7   8
ATOM     8   C6  UNL     1      -0.227   2.169   3.422  1.00  0.00     0.074 C   
BRANCH   8   9
ATOM     9   C5  UNL     1      -1.032   2.445   2.184  1.00  0.00     0.031 A   
ATOM     10  N1  UNL     1      -1.741   1.495   1.482  1.00  0.00    -0.230 N   
ATOM     11  N2  UNL     1      -1.955   1.887   0.193  1.00  0.00    -0.190 NA  
ATOM     12  C3  UNL     1      -1.818   3.219   0.268  1.00  0.00     0.133 A   
ATOM     13  C4  UNL     1      -1.208   3.616   1.470  1.00  0.00     0.042 A   
BRANCH  10  14
ATOM     14  C2  UNL     1      -2.345   0.268   1.971  1.00  0.00     0.129 C   
ATOM     15  C1  UNL     1      -1.672  -0.996   1.482  1.00  0.00     0.027 C   
ENDBRANCH  10  14
ENDBRANCH   8   9
ENDBRANCH   7   8
ENDBRANCH   1   7
BRANCH   3  16
ATOM     16  C10 UNL     1       1.151   0.214  -1.340  1.00  0.00     0.117 C   
BRANCH  16  17
ATOM     17  N4  UNL     1       0.001   1.107  -1.748  1.00  0.00     0.249 N   
ATOM     18  H14 UNL     1      -0.715   1.077  -0.990  1.00  0.00     0.199 HD  
ATOM     19  H15 UNL     1       0.305   2.082  -1.728  1.00  0.00     0.199 HD  
BRANCH  17  20
ATOM     20  C11 UNL     1      -0.712   0.836  -3.021  1.00  0.00     0.164 C   
BRANCH  20  21
ATOM     21  C12 UNL     1      -1.422  -0.486  -3.057  1.00  0.00    -0.002 A   
ATOM     22  C13 UNL     1      -2.653  -0.652  -2.377  1.00  0.00     0.012 A   
ATOM     23  C17 UNL     1      -0.866  -1.574  -3.751  1.00  0.00     0.045 A   
ATOM     24  C14 UNL     1      -3.318  -1.883  -2.379  1.00  0.00     0.037 A   
ATOM     25  C16 UNL     1      -1.547  -2.773  -3.735  1.00  0.00     0.109 A   
ATOM     26  C15 UNL     1      -2.736  -2.925  -3.067  1.00  0.00     0.108 A   
ATOM     27  O1  UNL     1      -1.146  -3.918  -4.349  1.00  0.00    -0.316 OA  
ATOM     28  O2  UNL     1      -3.233  -4.184  -3.173  1.00  0.00    -0.316 OA  
ATOM     29  C18 UNL     1      -2.239  -4.804  -4.018  1.00  0.00     0.337 C   
ENDBRANCH  20  21
ENDBRANCH  17  20
ENDBRANCH  16  17
BRANCH  16  30
ATOM     30  C19 UNL     1       2.320   0.286  -2.356  1.00  0.00     0.037 C   
ATOM     31  C20 UNL     1       3.428  -0.716  -1.997  1.00  0.00     0.014 C   
ATOM     32  C21 UNL     1       2.927   1.682  -2.537  1.00  0.00     0.014 C   
ENDBRANCH  16  30
ENDBRANCH   3  16
TORSDOF 9
