REMARK SMILES CC(C)(C)[C@H]([NH2+]Cc1ccc2c(c1)OCO2)c1cn(CCc2cc(O)ccc2O)nn1
REMARK SMILES IDX 17 1 18 2 19 3 30 4 31 5 5 7 2 8 1 9 3 10 4 11 6 12 7 15
REMARK SMILES IDX 8 16 9 17 13 18 10 19 12 20 11 21 14 22 16 23 15 24 20 25
REMARK SMILES IDX 21 26 22 27 23 28 28 29 24 30 27 31 26 32 29 33 25 35
REMARK H PARENT 18 6 6 13 6 14 29 34 25 36
ROOT
ATOM     1   C14 UNL     1      -0.311   0.865   1.614  1.00  0.00     0.127 A   
ATOM     2   C15 UNL     1       0.048   1.828   0.698  1.00  0.00     0.045 A   
ATOM     3   N2  UNL     1       1.143   2.423   1.260  1.00  0.00    -0.212 N   
ATOM     4   N3  UNL     1       1.423   1.883   2.460  1.00  0.00    -0.076 NA  
ATOM     5   N4  UNL     1       0.546   0.918   2.683  1.00  0.00    -0.132 NA  
ATOM     6   H20 UNL     1      -0.319   2.100  -0.283  1.00  0.00     0.083 HD  
ENDROOT
BRANCH   1   7
ATOM     7   C5  UNL     1      -1.330  -0.228   1.542  1.00  0.00     0.120 C   
BRANCH   7   8
ATOM     8   C2  UNL     1      -2.640   0.051   2.358  1.00  0.00     0.010 C   
ATOM     9   C1  UNL     1      -3.686  -1.054   2.081  1.00  0.00     0.017 C   
ATOM     10  C3  UNL     1      -2.401   0.118   3.879  1.00  0.00     0.017 C   
ATOM     11  C4  UNL     1      -3.268   1.389   1.905  1.00  0.00     0.017 C   
ENDBRANCH   7   8
BRANCH   7  12
ATOM     12  N1  UNL     1      -0.678  -1.516   2.007  1.00  0.00     0.250 N   
ATOM     13  H11 UNL     1      -1.371  -2.226   2.249  1.00  0.00     0.199 HD  
ATOM     14  H12 UNL     1      -0.172  -1.276   2.873  1.00  0.00     0.199 HD  
BRANCH  12  15
ATOM     15  C6  UNL     1       0.322  -2.116   1.071  1.00  0.00     0.164 C   
BRANCH  15  16
ATOM     16  C7  UNL     1      -0.327  -2.758  -0.125  1.00  0.00    -0.002 A   
ATOM     17  C8  UNL     1      -0.953  -4.022  -0.007  1.00  0.00     0.012 A   
ATOM     18  C12 UNL     1      -0.346  -2.091  -1.362  1.00  0.00     0.045 A   
ATOM     19  C9  UNL     1      -1.588  -4.614  -1.104  1.00  0.00     0.037 A   
ATOM     20  C11 UNL     1      -0.978  -2.703  -2.424  1.00  0.00     0.109 A   
ATOM     21  C10 UNL     1      -1.584  -3.928  -2.298  1.00  0.00     0.108 A   
ATOM     22  O1  UNL     1      -1.085  -2.196  -3.680  1.00  0.00    -0.316 OA  
ATOM     23  O2  UNL     1      -2.148  -4.348  -3.459  1.00  0.00    -0.316 OA  
ATOM     24  C13 UNL     1      -1.821  -3.252  -4.339  1.00  0.00     0.337 C   
ENDBRANCH  15  16
ENDBRANCH  12  15
ENDBRANCH   7  12
ENDBRANCH   1   7
BRANCH   3  25
ATOM     25  C16 UNL     1       2.027   3.406   0.666  1.00  0.00     0.139 C   
BRANCH  25  26
ATOM     26  C17 UNL     1       3.366   2.804   0.236  1.00  0.00     0.060 C   
BRANCH  26  27
ATOM     27  C18 UNL     1       3.219   1.718  -0.808  1.00  0.00    -0.014 A   
ATOM     28  C19 UNL     1       3.303   0.370  -0.429  1.00  0.00     0.039 A   
ATOM     29  C23 UNL     1       2.969   2.021  -2.150  1.00  0.00     0.075 A   
ATOM     30  C20 UNL     1       3.145  -0.634  -1.379  1.00  0.00     0.072 A   
ATOM     31  C22 UNL     1       2.825   1.013  -3.103  1.00  0.00     0.036 A   
ATOM     32  C21 UNL     1       2.914  -0.325  -2.716  1.00  0.00     0.036 A   
BRANCH  29  33
ATOM     33  O4  UNL     1       2.851   3.333  -2.510  1.00  0.00    -0.361 OA  
ATOM     34  H29 UNL     1       2.883   3.398  -3.481  1.00  0.00     0.218 HD  
ENDBRANCH  29  33
BRANCH  30  35
ATOM     35  O3  UNL     1       3.189  -1.929  -0.953  1.00  0.00    -0.361 OA  
ATOM     36  H26 UNL     1       3.386  -2.490  -1.725  1.00  0.00     0.218 HD  
ENDBRANCH  30  35
ENDBRANCH  26  27
ENDBRANCH  25  26
ENDBRANCH   3  25
TORSDOF 10
