REMARK SMILES CCc1cc(-n2cc([C@@H]([NH2+]Cc3ccc4c(c3)OCO4)C3CCCCC3)nn2)ccc1O
REMARK SMILES IDX 6 1 7 2 8 3 27 4 28 5 5 6 3 7 4 8 31 9 30 10 29 11 2 12 1 13
REMARK SMILES IDX 32 14 9 16 10 17 11 20 12 21 13 22 17 23 14 24 16 25 15 26
REMARK SMILES IDX 18 27 20 28 19 29 21 30 22 31 26 32 23 33 25 34 24 35
REMARK H PARENT 32 15 10 18 10 19
ROOT
ATOM     1   N1  UNL     1       2.243  -0.631   0.618  1.00  0.00    -0.181 N   
ATOM     2   C6  UNL     1       1.441  -0.808  -0.495  1.00  0.00     0.135 A   
ATOM     3   C7  UNL     1       0.235  -0.229  -0.163  1.00  0.00     0.127 A   
ATOM     4   N3  UNL     1       0.304   0.243   1.115  1.00  0.00    -0.131 NA  
ATOM     5   N4  UNL     1       1.519   0.005   1.577  1.00  0.00    -0.071 NA  
ENDROOT
BRANCH   1   6
ATOM     6   C5  UNL     1       3.588  -1.024   0.832  1.00  0.00     0.058 A   
ATOM     7   C3  UNL     1       5.627  -2.171   0.085  1.00  0.00    -0.016 A   
ATOM     8   C4  UNL     1       4.296  -1.760  -0.137  1.00  0.00     0.032 A   
ATOM     9   C25 UNL     1       6.224  -1.807   1.302  1.00  0.00     0.075 A   
ATOM     10  C24 UNL     1       5.531  -1.075   2.265  1.00  0.00     0.035 A   
ATOM     11  C23 UNL     1       4.215  -0.682   2.036  1.00  0.00     0.028 A   
BRANCH   7  12
ATOM     12  C2  UNL     1       6.395  -3.004  -0.923  1.00  0.00     0.035 C   
ATOM     13  C1  UNL     1       5.683  -3.382  -2.218  1.00  0.00     0.009 C   
ENDBRANCH   7  12
BRANCH   9  14
ATOM     14  O3  UNL     1       7.503  -2.154   1.644  1.00  0.00    -0.361 OA  
ATOM     15  H31 UNL     1       7.959  -2.563   0.893  1.00  0.00     0.218 HD  
ENDBRANCH   9  14
ENDBRANCH   1   6
BRANCH   3  16
ATOM     16  C8  UNL     1      -1.046  -0.088  -0.925  1.00  0.00     0.117 C   
BRANCH  16  17
ATOM     17  N2  UNL     1      -2.202   0.048   0.031  1.00  0.00     0.249 N   
ATOM     18  H9  UNL     1      -2.996   0.546  -0.382  1.00  0.00     0.199 HD  
ATOM     19  H10 UNL     1      -1.878   0.637   0.815  1.00  0.00     0.199 HD  
BRANCH  17  20
ATOM     20  C9  UNL     1      -2.687  -1.236   0.612  1.00  0.00     0.164 C   
BRANCH  20  21
ATOM     21  C10 UNL     1      -3.781  -0.985   1.611  1.00  0.00    -0.002 A   
ATOM     22  C11 UNL     1      -3.471  -0.821   2.983  1.00  0.00     0.012 A   
ATOM     23  C15 UNL     1      -5.114  -0.862   1.181  1.00  0.00     0.045 A   
ATOM     24  C12 UNL     1      -4.477  -0.548   3.917  1.00  0.00     0.037 A   
ATOM     25  C14 UNL     1      -6.080  -0.598   2.130  1.00  0.00     0.109 A   
ATOM     26  C13 UNL     1      -5.772  -0.446   3.459  1.00  0.00     0.108 A   
ATOM     27  O1  UNL     1      -7.407  -0.454   1.880  1.00  0.00    -0.316 OA  
ATOM     28  O2  UNL     1      -6.870  -0.186   4.216  1.00  0.00    -0.316 OA  
ATOM     29  C16 UNL     1      -7.911  -0.224   3.216  1.00  0.00     0.337 C   
ENDBRANCH  20  21
ENDBRANCH  17  20
ENDBRANCH  16  17
BRANCH  16  30
ATOM     30  C17 UNL     1      -1.012   1.104  -1.918  1.00  0.00     0.043 C   
ATOM     31  C18 UNL     1      -0.917   2.484  -1.239  1.00  0.00     0.010 C   
ATOM     32  C22 UNL     1      -2.205   1.073  -2.894  1.00  0.00     0.010 C   
ATOM     33  C19 UNL     1      -0.840   3.612  -2.268  1.00  0.00     0.001 C   
ATOM     34  C21 UNL     1      -2.123   2.203  -3.919  1.00  0.00     0.001 C   
ATOM     35  C20 UNL     1      -2.010   3.566  -3.244  1.00  0.00     0.000 C   
ENDBRANCH  16  30
ENDBRANCH   3  16
TORSDOF 8
