REMARK SMILES CC(C)C[C@H]([NH2+]Cc1ccc2c(c1)OCO2)c1cn(Cc2cnn(C)c2)nn1
REMARK SMILES IDX 17 1 18 2 19 3 27 4 28 5 5 7 4 8 2 9 1 10 3 11 6 12 7 15
REMARK SMILES IDX 8 16 9 17 13 18 10 19 12 20 11 21 14 22 16 23 15 24 20 25
REMARK SMILES IDX 21 26 22 27 26 28 23 29 24 30 25 31
REMARK H PARENT 18 6 6 13 6 14
ROOT
ATOM     1   C14 UNL     1       0.750  -0.790   1.637  1.00  0.00     0.127 A   
ATOM     2   C15 UNL     1       1.364  -0.158   0.580  1.00  0.00     0.046 A   
ATOM     3   N2  UNL     1       2.096  -1.149  -0.017  1.00  0.00    -0.208 N   
ATOM     4   N5  UNL     1       1.974  -2.308   0.660  1.00  0.00    -0.076 NA  
ATOM     5   N6  UNL     1       1.160  -2.097   1.683  1.00  0.00    -0.132 NA  
ATOM     6   H20 UNL     1       1.302   0.842   0.171  1.00  0.00     0.083 HD  
ENDROOT
BRANCH   1   7
ATOM     7   C5  UNL     1      -0.287  -0.302   2.593  1.00  0.00     0.114 C   
BRANCH   7   8
ATOM     8   C4  UNL     1       0.344   0.029   3.961  1.00  0.00     0.064 C   
BRANCH   8   9
ATOM     9   C2  UNL     1      -0.607   0.592   5.038  1.00  0.00    -0.012 C   
ATOM     10  C1  UNL     1      -1.327   1.861   4.582  1.00  0.00     0.007 C   
ATOM     11  C3  UNL     1       0.182   0.879   6.320  1.00  0.00     0.007 C   
ENDBRANCH   8   9
ENDBRANCH   7   8
BRANCH   7  12
ATOM     12  N1  UNL     1      -1.374  -1.335   2.790  1.00  0.00     0.249 N   
ATOM     13  H11 UNL     1      -0.921  -2.170   3.184  1.00  0.00     0.199 HD  
ATOM     14  H12 UNL     1      -2.057  -1.002   3.475  1.00  0.00     0.199 HD  
BRANCH  12  15
ATOM     15  C6  UNL     1      -2.112  -1.778   1.563  1.00  0.00     0.164 C   
BRANCH  15  16
ATOM     16  C7  UNL     1      -2.745  -0.652   0.794  1.00  0.00    -0.002 A   
ATOM     17  C8  UNL     1      -2.301  -0.355  -0.517  1.00  0.00     0.012 A   
ATOM     18  C12 UNL     1      -3.766   0.124   1.369  1.00  0.00     0.045 A   
ATOM     19  C9  UNL     1      -2.850   0.708  -1.241  1.00  0.00     0.037 A   
ATOM     20  C11 UNL     1      -4.283   1.168   0.629  1.00  0.00     0.109 A   
ATOM     21  C10 UNL     1      -3.837   1.454  -0.637  1.00  0.00     0.108 A   
ATOM     22  O1  UNL     1      -5.259   2.019   1.041  1.00  0.00    -0.316 OA  
ATOM     23  O2  UNL     1      -4.477   2.520  -1.184  1.00  0.00    -0.316 OA  
ATOM     24  C13 UNL     1      -5.405   2.854  -0.130  1.00  0.00     0.337 C   
ENDBRANCH  15  16
ENDBRANCH  12  15
ENDBRANCH   7  12
ENDBRANCH   1   7
BRANCH   3  25
ATOM     25  C16 UNL     1       2.797  -1.098  -1.291  1.00  0.00     0.172 C   
BRANCH  25  26
ATOM     26  C17 UNL     1       1.806  -1.046  -2.399  1.00  0.00     0.007 A   
ATOM     27  C18 UNL     1       0.858  -2.038  -2.744  1.00  0.00     0.138 A   
ATOM     28  C20 UNL     1       1.575  -0.034  -3.311  1.00  0.00     0.102 A   
ATOM     29  N3  UNL     1       0.057  -1.654  -3.737  1.00  0.00    -0.190 NA  
ATOM     30  N4  UNL     1       0.548  -0.458  -4.105  1.00  0.00    -0.236 N   
ATOM     31  C19 UNL     1      -0.032   0.236  -5.230  1.00  0.00     0.159 C   
ENDBRANCH  25  26
ENDBRANCH   3  25
TORSDOF 8
