REMARK SMILES c1csc(-n2cc([C@@H]([NH2+]Cc3ccc4c(c3)OCO4)C3CCCC3)nn2)n1
REMARK SMILES IDX 8 1 7 2 5 3 6 4 26 5 25 6 4 7 1 8 2 9 27 10 3 11 9 12 10 15
REMARK SMILES IDX 11 16 12 17 16 18 13 19 15 20 14 21 17 22 19 23 18 24 20 25
REMARK SMILES IDX 21 26 24 27 22 28 23 29
REMARK H PARENT 9 13 9 14
ROOT
ATOM     1   C6  UNL     1       1.010   1.516   0.181  1.00  0.00     0.117 C   
ENDROOT
BRANCH   1   2
ATOM     2   C5  UNL     1       0.187   0.599  -0.667  1.00  0.00     0.128 A   
ATOM     3   N1  UNL     1      -1.180  -0.892  -1.494  1.00  0.00    -0.156 N   
ATOM     4   C4  UNL     1      -1.000  -0.047  -0.415  1.00  0.00     0.137 A   
ATOM     5   N4  UNL     1      -0.172  -0.699  -2.383  1.00  0.00    -0.069 NA  
ATOM     6   N3  UNL     1       0.667   0.197  -1.885  1.00  0.00    -0.131 NA  
BRANCH   3   7
ATOM     7   C3  UNL     1      -2.177  -1.843  -1.689  1.00  0.00     0.185 A   
ATOM     8   C1  UNL     1      -3.961  -3.055  -1.289  1.00  0.00     0.121 A   
ATOM     9   C2  UNL     1      -3.604  -3.587  -2.512  1.00  0.00     0.069 A   
ATOM     10  N5  UNL     1      -3.135  -2.053  -0.809  1.00  0.00    -0.232 NA  
ATOM     11  S1  UNL     1      -2.188  -2.808  -3.091  1.00  0.00    -0.059 S   
ENDBRANCH   3   7
ENDBRANCH   1   2
BRANCH   1  12
ATOM     12  N2  UNL     1       2.458   1.056   0.146  1.00  0.00     0.249 N   
ATOM     13  H5  UNL     1       3.095   1.855   0.212  1.00  0.00     0.199 HD  
ATOM     14  H6  UNL     1       2.608   0.654  -0.793  1.00  0.00     0.199 HD  
BRANCH  12  15
ATOM     15  C7  UNL     1       2.863   0.041   1.166  1.00  0.00     0.164 C   
BRANCH  15  16
ATOM     16  C8  UNL     1       2.128  -1.265   1.052  1.00  0.00    -0.002 A   
ATOM     17  C9  UNL     1       2.404  -2.152  -0.017  1.00  0.00     0.012 A   
ATOM     18  C13 UNL     1       1.107  -1.582   1.965  1.00  0.00     0.045 A   
ATOM     19  C10 UNL     1       1.653  -3.319  -0.196  1.00  0.00     0.037 A   
ATOM     20  C12 UNL     1       0.380  -2.735   1.753  1.00  0.00     0.109 A   
ATOM     21  C11 UNL     1       0.640  -3.576   0.700  1.00  0.00     0.108 A   
ATOM     22  O1  UNL     1      -0.668  -3.156   2.508  1.00  0.00    -0.316 OA  
ATOM     23  O2  UNL     1      -0.210  -4.634   0.659  1.00  0.00    -0.316 OA  
ATOM     24  C14 UNL     1      -1.038  -4.368   1.812  1.00  0.00     0.337 C   
ENDBRANCH  15  16
ENDBRANCH  12  15
ENDBRANCH   1  12
BRANCH   1  25
ATOM     25  C15 UNL     1       0.943   2.974  -0.314  1.00  0.00     0.043 C   
ATOM     26  C16 UNL     1      -0.473   3.561  -0.286  1.00  0.00     0.010 C   
ATOM     27  C19 UNL     1       1.732   3.968   0.552  1.00  0.00     0.010 C   
ATOM     28  C17 UNL     1      -0.228   5.054  -0.420  1.00  0.00     0.001 C   
ATOM     29  C18 UNL     1       1.021   5.315   0.413  1.00  0.00     0.001 C   
ENDBRANCH   1  25
TORSDOF 6
