REMARK SMILES CC(C)C[C@H]([NH2+]Cc1ccc2c(c1)OCO2)c1cn(Cc2ccnn2CC(C)C)nn1
REMARK SMILES IDX 17 1 18 2 19 3 30 4 31 5 5 7 4 8 2 9 1 10 3 11 6 12 7 15
REMARK SMILES IDX 8 16 9 17 13 18 10 19 12 20 11 21 14 22 16 23 15 24 20 25
REMARK SMILES IDX 21 26 22 27 25 28 23 29 24 30 26 31 27 32 28 33 29 34
REMARK H PARENT 18 6 6 13 6 14
ROOT
ATOM     1   C14 UNL     1       0.182  -0.571  -0.083  1.00  0.00     0.127 A   
ATOM     2   C15 UNL     1       0.896   0.312   0.697  1.00  0.00     0.046 A   
ATOM     3   N2  UNL     1       0.015   1.333   0.930  1.00  0.00    -0.206 N   
ATOM     4   N5  UNL     1      -1.194   1.050   0.411  1.00  0.00    -0.076 NA  
ATOM     5   N6  UNL     1      -1.096  -0.098  -0.241  1.00  0.00    -0.132 NA  
ATOM     6   H20 UNL     1       1.917   0.335   1.056  1.00  0.00     0.083 HD  
ENDROOT
BRANCH   1   7
ATOM     7   C5  UNL     1       0.570  -1.874  -0.698  1.00  0.00     0.114 C   
BRANCH   7   8
ATOM     8   C4  UNL     1       1.082  -1.709  -2.146  1.00  0.00     0.064 C   
BRANCH   8   9
ATOM     9   C2  UNL     1       2.382  -0.889  -2.297  1.00  0.00    -0.012 C   
ATOM     10  C1  UNL     1       3.571  -1.550  -1.593  1.00  0.00     0.007 C   
ATOM     11  C3  UNL     1       2.702  -0.697  -3.782  1.00  0.00     0.007 C   
ENDBRANCH   8   9
ENDBRANCH   7   8
BRANCH   7  12
ATOM     12  N1  UNL     1      -0.622  -2.811  -0.767  1.00  0.00     0.249 N   
ATOM     13  H11 UNL     1      -1.359  -2.304  -1.278  1.00  0.00     0.199 HD  
ATOM     14  H12 UNL     1      -0.381  -3.641  -1.317  1.00  0.00     0.199 HD  
BRANCH  12  15
ATOM     15  C6  UNL     1      -1.212  -3.245   0.534  1.00  0.00     0.164 C   
BRANCH  15  16
ATOM     16  C7  UNL     1      -0.277  -4.082   1.362  1.00  0.00    -0.002 A   
ATOM     17  C8  UNL     1      -0.044  -5.440   1.035  1.00  0.00     0.012 A   
ATOM     18  C12 UNL     1       0.390  -3.510   2.461  1.00  0.00     0.045 A   
ATOM     19  C9  UNL     1       0.834  -6.223   1.796  1.00  0.00     0.037 A   
ATOM     20  C11 UNL     1       1.251  -4.306   3.187  1.00  0.00     0.109 A   
ATOM     21  C10 UNL     1       1.460  -5.627   2.871  1.00  0.00     0.108 A   
ATOM     22  O1  UNL     1       1.980  -3.908   4.263  1.00  0.00    -0.316 OA  
ATOM     23  O2  UNL     1       2.333  -6.230   3.721  1.00  0.00    -0.316 OA  
ATOM     24  C13 UNL     1       2.624  -5.148   4.634  1.00  0.00     0.337 C   
ENDBRANCH  15  16
ENDBRANCH  12  15
ENDBRANCH   7  12
ENDBRANCH   1   7
BRANCH   3  25
ATOM     25  C16 UNL     1       0.251   2.581   1.638  1.00  0.00     0.187 C   
BRANCH  25  26
ATOM     26  C17 UNL     1       0.938   3.562   0.753  1.00  0.00     0.049 A   
ATOM     27  C18 UNL     1       2.287   3.842   0.624  1.00  0.00     0.044 A   
ATOM     28  N4  UNL     1       0.298   4.415  -0.122  1.00  0.00    -0.228 N   
ATOM     29  C19 UNL     1       2.358   4.868  -0.332  1.00  0.00     0.133 A   
ATOM     30  N3  UNL     1       1.153   5.220  -0.780  1.00  0.00    -0.190 NA  
BRANCH  28  31
ATOM     31  C20 UNL     1      -1.130   4.596  -0.348  1.00  0.00     0.135 C   
BRANCH  31  32
ATOM     32  C21 UNL     1      -1.561   4.562  -1.827  1.00  0.00     0.002 C   
ATOM     33  C22 UNL     1      -1.320   3.189  -2.467  1.00  0.00     0.009 C   
ATOM     34  C23 UNL     1      -3.042   4.934  -1.942  1.00  0.00     0.009 C   
ENDBRANCH  31  32
ENDBRANCH  28  31
ENDBRANCH  25  26
ENDBRANCH   3  25
TORSDOF 10
