REMARK SMILES COc1ccc(-n2cc([C@@H]([NH2+]Cc3ccc4c(c3)OCO4)C(C)(C)C)nn2)c(F)c1
REMARK SMILES IDX 7 1 8 2 9 3 26 4 27 5 6 6 3 7 4 8 30 9 5 10 28 11 29 12 2 13
REMARK SMILES IDX 1 14 10 15 11 16 12 19 13 20 14 21 18 22 15 23 17 24 16 25
REMARK SMILES IDX 19 26 21 27 20 28 22 29 23 30 24 31 25 32
REMARK H PARENT 11 17 11 18
ROOT
ATOM     1   N1  UNL     1       2.629   0.678   1.214  1.00  0.00    -0.178 N   
ATOM     2   C6  UNL     1       2.004   1.157   0.078  1.00  0.00     0.135 A   
ATOM     3   C7  UNL     1       0.661   0.924   0.274  1.00  0.00     0.128 A   
ATOM     4   N3  UNL     1       0.491   0.288   1.470  1.00  0.00    -0.131 NA  
ATOM     5   N4  UNL     1       1.680   0.135   2.026  1.00  0.00    -0.071 NA  
ENDROOT
BRANCH   1   6
ATOM     6   C5  UNL     1       3.997   0.676   1.574  1.00  0.00     0.093 A   
ATOM     7   C2  UNL     1       6.713   0.655   2.326  1.00  0.00     0.078 A   
ATOM     8   C3  UNL     1       5.738   0.112   3.167  1.00  0.00     0.035 A   
ATOM     9   C22 UNL     1       6.327   1.208   1.109  1.00  0.00     0.074 A   
ATOM     10  C4  UNL     1       4.388   0.119   2.800  1.00  0.00     0.032 A   
ATOM     11  C21 UNL     1       4.979   1.216   0.740  1.00  0.00     0.149 A   
ATOM     12  F1  UNL     1       4.671   1.760  -0.445  1.00  0.00    -0.205 F   
BRANCH   7  13
ATOM     13  O1  UNL     1       7.987   0.580   2.810  1.00  0.00    -0.349 OA  
ATOM     14  C1  UNL     1       9.023   1.132   2.004  1.00  0.00     0.203 C   
ENDBRANCH   7  13
ENDBRANCH   1   6
BRANCH   3  15
ATOM     15  C8  UNL     1      -0.530   1.186  -0.601  1.00  0.00     0.120 C   
BRANCH  15  16
ATOM     16  N2  UNL     1      -1.537   0.077  -0.394  1.00  0.00     0.250 N   
ATOM     17  H8  UNL     1      -2.476   0.336  -0.706  1.00  0.00     0.199 HD  
ATOM     18  H9  UNL     1      -1.607  -0.074   0.624  1.00  0.00     0.199 HD  
BRANCH  16  19
ATOM     19  C9  UNL     1      -1.182  -1.233  -1.008  1.00  0.00     0.164 C   
BRANCH  19  20
ATOM     20  C10 UNL     1      -2.225  -2.263  -0.681  1.00  0.00    -0.002 A   
ATOM     21  C11 UNL     1      -3.294  -2.513  -1.575  1.00  0.00     0.012 A   
ATOM     22  C15 UNL     1      -2.173  -2.948   0.546  1.00  0.00     0.045 A   
ATOM     23  C12 UNL     1      -4.293  -3.439  -1.257  1.00  0.00     0.037 A   
ATOM     24  C14 UNL     1      -3.175  -3.854   0.827  1.00  0.00     0.109 A   
ATOM     25  C13 UNL     1      -4.205  -4.093  -0.048  1.00  0.00     0.108 A   
ATOM     26  O2  UNL     1      -3.274  -4.595   1.962  1.00  0.00    -0.316 OA  
ATOM     27  O3  UNL     1      -5.082  -5.016   0.423  1.00  0.00    -0.316 OA  
ATOM     28  C16 UNL     1      -4.477  -5.350   1.691  1.00  0.00     0.337 C   
ENDBRANCH  19  20
ENDBRANCH  16  19
ENDBRANCH  15  16
BRANCH  15  29
ATOM     29  C17 UNL     1      -1.205   2.583  -0.367  1.00  0.00     0.010 C   
ATOM     30  C18 UNL     1      -2.323   2.822  -1.409  1.00  0.00     0.017 C   
ATOM     31  C19 UNL     1      -0.170   3.717  -0.556  1.00  0.00     0.017 C   
ATOM     32  C20 UNL     1      -1.818   2.718   1.041  1.00  0.00     0.017 C   
ENDBRANCH  15  29
ENDBRANCH   3  15
TORSDOF 7
