REMARK SMILES COc1ccc(-n2cc([C@@H]([NH2+]Cc3ccc4c(c3)OCO4)C3CCCCC3)nn2)c(F)c1
REMARK SMILES IDX 7 1 8 2 9 3 28 4 29 5 6 6 3 7 4 8 32 9 5 10 30 11 31 12 2 13
REMARK SMILES IDX 1 14 10 15 11 16 12 19 13 20 14 21 18 22 15 23 17 24 16 25
REMARK SMILES IDX 19 26 21 27 20 28 22 29 23 30 27 31 24 32 26 33 25 34
REMARK H PARENT 11 17 11 18
ROOT
ATOM     1   N1  UNL     1      -1.405  -0.932   0.243  1.00  0.00    -0.178 N   
ATOM     2   C6  UNL     1      -0.662   0.231   0.178  1.00  0.00     0.135 A   
ATOM     3   C7  UNL     1       0.013   0.294   1.376  1.00  0.00     0.127 A   
ATOM     4   N3  UNL     1      -0.262  -0.826   2.106  1.00  0.00    -0.131 NA  
ATOM     5   N4  UNL     1      -1.099  -1.573   1.407  1.00  0.00    -0.071 NA  
ENDROOT
BRANCH   1   6
ATOM     6   C5  UNL     1      -2.386  -1.438  -0.640  1.00  0.00     0.093 A   
ATOM     7   C2  UNL     1      -4.397  -2.444  -2.338  1.00  0.00     0.078 A   
ATOM     8   C3  UNL     1      -4.018  -3.146  -1.192  1.00  0.00     0.035 A   
ATOM     9   C24 UNL     1      -3.766  -1.239  -2.636  1.00  0.00     0.074 A   
ATOM     10  C4  UNL     1      -3.020  -2.653  -0.344  1.00  0.00     0.032 A   
ATOM     11  C23 UNL     1      -2.768  -0.745  -1.791  1.00  0.00     0.149 A   
ATOM     12  F1  UNL     1      -2.208   0.425  -2.127  1.00  0.00    -0.205 F   
BRANCH   7  13
ATOM     13  O1  UNL     1      -5.386  -3.038  -3.070  1.00  0.00    -0.349 OA  
ATOM     14  C1  UNL     1      -5.777  -2.395  -4.278  1.00  0.00     0.203 C   
ENDBRANCH   7  13
ENDBRANCH   1   6
BRANCH   3  15
ATOM     15  C8  UNL     1       0.821   1.391   1.995  1.00  0.00     0.117 C   
BRANCH  15  16
ATOM     16  N2  UNL     1       0.259   1.637   3.388  1.00  0.00     0.249 N   
ATOM     17  H8  UNL     1       1.002   1.811   4.069  1.00  0.00     0.199 HD  
ATOM     18  H9  UNL     1      -0.162   0.741   3.684  1.00  0.00     0.199 HD  
BRANCH  16  19
ATOM     19  C9  UNL     1      -0.779   2.705   3.509  1.00  0.00     0.164 C   
BRANCH  19  20
ATOM     20  C10 UNL     1      -2.007   2.458   2.674  1.00  0.00    -0.002 A   
ATOM     21  C11 UNL     1      -2.255   3.239   1.519  1.00  0.00     0.012 A   
ATOM     22  C15 UNL     1      -2.886   1.409   2.998  1.00  0.00     0.045 A   
ATOM     23  C12 UNL     1      -3.339   2.958   0.679  1.00  0.00     0.037 A   
ATOM     24  C14 UNL     1      -3.941   1.155   2.146  1.00  0.00     0.109 A   
ATOM     25  C13 UNL     1      -4.157   1.902   1.014  1.00  0.00     0.108 A   
ATOM     26  O2  UNL     1      -4.852   0.158   2.291  1.00  0.00    -0.316 OA  
ATOM     27  O3  UNL     1      -5.227   1.466   0.302  1.00  0.00    -0.316 OA  
ATOM     28  C16 UNL     1      -5.681   0.370   1.125  1.00  0.00     0.337 C   
ENDBRANCH  19  20
ENDBRANCH  16  19
ENDBRANCH  15  16
BRANCH  15  29
ATOM     29  C17 UNL     1       2.336   1.055   2.098  1.00  0.00     0.043 C   
ATOM     30  C18 UNL     1       3.147   2.249   2.651  1.00  0.00     0.010 C   
ATOM     31  C22 UNL     1       2.912   0.641   0.723  1.00  0.00     0.010 C   
ATOM     32  C19 UNL     1       4.646   1.961   2.699  1.00  0.00     0.001 C   
ATOM     33  C21 UNL     1       4.413   0.368   0.774  1.00  0.00     0.001 C   
ATOM     34  C20 UNL     1       5.184   1.554   1.334  1.00  0.00     0.000 C   
ENDBRANCH  15  29
ENDBRANCH   3  15
TORSDOF 7
