REMARK SMILES Cc1cc(CO)nc(-n2cc([C@@H]([NH2+]Cc3ccc4c(c3)OCO4)C3CCCCC3)nn2)c1
REMARK SMILES IDX 9 1 10 2 11 3 30 4 31 5 8 6 2 7 3 8 32 9 4 10 7 11 1 12 5 13
REMARK SMILES IDX 6 14 12 16 13 17 14 20 15 21 16 22 20 23 17 24 19 25 18 26
REMARK SMILES IDX 21 27 23 28 22 29 24 30 25 31 29 32 26 33 28 34 27 35
REMARK H PARENT 6 15 13 18 13 19
ROOT
ATOM     1   N2  UNL     1       0.942  -1.714   1.504  1.00  0.00    -0.162 N   
ATOM     2   C7  UNL     1       1.131  -0.355   1.342  1.00  0.00     0.137 A   
ATOM     3   C8  UNL     1       0.572  -0.060   0.120  1.00  0.00     0.128 A   
ATOM     4   N4  UNL     1       0.097  -1.216  -0.443  1.00  0.00    -0.131 NA  
ATOM     5   N5  UNL     1       0.326  -2.211   0.400  1.00  0.00    -0.070 NA  
ENDROOT
BRANCH   1   6
ATOM     6   C6  UNL     1       1.323  -2.502   2.622  1.00  0.00     0.146 A   
ATOM     7   C2  UNL     1       1.418  -4.624   3.742  1.00  0.00    -0.046 A   
ATOM     8   C3  UNL     1       2.070  -3.989   4.803  1.00  0.00     0.030 A   
ATOM     9   C24 UNL     1       1.026  -3.863   2.637  1.00  0.00     0.050 A   
ATOM     10  C4  UNL     1       2.330  -2.625   4.718  1.00  0.00     0.068 A   
ATOM     11  N1  UNL     1       1.968  -1.871   3.641  1.00  0.00    -0.233 NA  
ATOM     12  C1  UNL     1       1.097  -6.089   3.818  1.00  0.00     0.044 C   
BRANCH  10  13
ATOM     13  C5  UNL     1       3.040  -1.915   5.852  1.00  0.00     0.212 C   
BRANCH  13  14
ATOM     14  O1  UNL     1       3.241  -0.536   5.539  1.00  0.00    -0.390 OA  
ATOM     15  H7  UNL     1       2.841  -0.419   4.656  1.00  0.00     0.211 HD  
ENDBRANCH  13  14
ENDBRANCH  10  13
ENDBRANCH   1   6
BRANCH   3  16
ATOM     16  C9  UNL     1       0.471   1.228  -0.632  1.00  0.00     0.117 C   
BRANCH  16  17
ATOM     17  N3  UNL     1       0.617   0.977  -2.114  1.00  0.00     0.249 N   
ATOM     18  H10 UNL     1       0.012   0.177  -2.350  1.00  0.00     0.199 HD  
ATOM     19  H11 UNL     1       0.268   1.771  -2.661  1.00  0.00     0.199 HD  
BRANCH  17  20
ATOM     20  C10 UNL     1       1.994   0.642  -2.569  1.00  0.00     0.164 C   
BRANCH  20  21
ATOM     21  C11 UNL     1       2.015   0.396  -4.051  1.00  0.00    -0.002 A   
ATOM     22  C12 UNL     1       1.756  -0.900  -4.561  1.00  0.00     0.012 A   
ATOM     23  C16 UNL     1       2.243   1.458  -4.941  1.00  0.00     0.045 A   
ATOM     24  C13 UNL     1       1.738  -1.138  -5.940  1.00  0.00     0.037 A   
ATOM     25  C15 UNL     1       2.219   1.189  -6.293  1.00  0.00     0.109 A   
ATOM     26  C14 UNL     1       1.974  -0.072  -6.779  1.00  0.00     0.108 A   
ATOM     27  O2  UNL     1       2.420   2.098  -7.283  1.00  0.00    -0.316 OA  
ATOM     28  O3  UNL     1       1.994  -0.116  -8.137  1.00  0.00    -0.316 OA  
ATOM     29  C17 UNL     1       2.327   1.253  -8.453  1.00  0.00     0.337 C   
ENDBRANCH  20  21
ENDBRANCH  17  20
ENDBRANCH  16  17
BRANCH  16  30
ATOM     30  C18 UNL     1      -0.852   2.005  -0.394  1.00  0.00     0.043 C   
ATOM     31  C19 UNL     1      -0.970   2.495   1.064  1.00  0.00     0.010 C   
ATOM     32  C23 UNL     1      -2.123   1.231  -0.798  1.00  0.00     0.010 C   
ATOM     33  C20 UNL     1      -2.233   3.328   1.278  1.00  0.00     0.001 C   
ATOM     34  C22 UNL     1      -3.386   2.060  -0.572  1.00  0.00     0.001 C   
ATOM     35  C21 UNL     1      -3.486   2.563   0.864  1.00  0.00     0.000 C   
ENDBRANCH  16  30
ENDBRANCH   3  16
TORSDOF 8
