REMARK SMILES CC(C)(C)[C@H]([NH2+]Cc1ccc2c(c1)OCO2)c1cn(Cc2c(F)cccc2F)nn1
REMARK SMILES IDX 17 1 18 2 19 3 29 4 30 5 5 7 2 8 1 9 3 10 4 11 6 12 7 15
REMARK SMILES IDX 8 16 9 17 13 18 10 19 12 20 11 21 14 22 16 23 15 24 20 25
REMARK SMILES IDX 21 26 22 27 27 28 24 29 26 30 25 31 23 32 28 33
REMARK H PARENT 18 6 6 13 6 14
ROOT
ATOM     1   C14 UNL     1       1.062   1.175   1.296  1.00  0.00     0.127 A   
ATOM     2   C15 UNL     1       1.333   1.084   2.643  1.00  0.00     0.046 A   
ATOM     3   N2  UNL     1       0.150   1.418   3.245  1.00  0.00    -0.208 N   
ATOM     4   N3  UNL     1      -0.798   1.677   2.324  1.00  0.00    -0.076 NA  
ATOM     5   N4  UNL     1      -0.252   1.536   1.128  1.00  0.00    -0.132 NA  
ATOM     6   H20 UNL     1       2.215   0.820   3.212  1.00  0.00     0.083 HD  
ENDROOT
BRANCH   1   7
ATOM     7   C5  UNL     1       1.900   0.881   0.088  1.00  0.00     0.120 C   
BRANCH   7   8
ATOM     8   C2  UNL     1       2.696   2.117  -0.460  1.00  0.00     0.010 C   
ATOM     9   C1  UNL     1       3.635   1.684  -1.611  1.00  0.00     0.017 C   
ATOM     10  C3  UNL     1       1.772   3.235  -0.983  1.00  0.00     0.017 C   
ATOM     11  C4  UNL     1       3.595   2.709   0.650  1.00  0.00     0.017 C   
ENDBRANCH   7   8
BRANCH   7  12
ATOM     12  N1  UNL     1       1.003   0.315  -0.989  1.00  0.00     0.250 N   
ATOM     13  H11 UNL     1       1.415   0.380  -1.923  1.00  0.00     0.199 HD  
ATOM     14  H12 UNL     1       0.159   0.909  -1.007  1.00  0.00     0.199 HD  
BRANCH  12  15
ATOM     15  C6  UNL     1       0.543  -1.084  -0.766  1.00  0.00     0.164 C   
BRANCH  15  16
ATOM     16  C7  UNL     1      -0.427  -1.492  -1.838  1.00  0.00    -0.002 A   
ATOM     17  C8  UNL     1      -1.803  -1.185  -1.703  1.00  0.00     0.012 A   
ATOM     18  C12 UNL     1       0.030  -2.126  -3.005  1.00  0.00     0.045 A   
ATOM     19  C9  UNL     1      -2.715  -1.516  -2.711  1.00  0.00     0.037 A   
ATOM     20  C11 UNL     1      -0.895  -2.438  -3.979  1.00  0.00     0.109 A   
ATOM     21  C10 UNL     1      -2.229  -2.143  -3.837  1.00  0.00     0.108 A   
ATOM     22  O1  UNL     1      -0.622  -3.049  -5.162  1.00  0.00    -0.316 OA  
ATOM     23  O2  UNL     1      -2.963  -2.533  -4.910  1.00  0.00    -0.316 OA  
ATOM     24  C13 UNL     1      -1.944  -3.127  -5.742  1.00  0.00     0.337 C   
ENDBRANCH  15  16
ENDBRANCH  12  15
ENDBRANCH   7  12
ENDBRANCH   1   7
BRANCH   3  25
ATOM     25  C16 UNL     1      -0.142   1.519   4.665  1.00  0.00     0.175 C   
BRANCH  25  26
ATOM     26  C17 UNL     1      -0.742   0.251   5.189  1.00  0.00     0.043 A   
ATOM     27  C18 UNL     1      -2.113   0.148   5.424  1.00  0.00     0.131 A   
ATOM     28  C22 UNL     1       0.049  -0.870   5.444  1.00  0.00     0.131 A   
ATOM     29  C19 UNL     1      -2.682  -1.029   5.906  1.00  0.00     0.040 A   
ATOM     30  C21 UNL     1      -0.500  -2.056   5.927  1.00  0.00     0.040 A   
ATOM     31  C20 UNL     1      -1.873  -2.136   6.161  1.00  0.00     0.006 A   
ATOM     32  F1  UNL     1      -2.908   1.200   5.188  1.00  0.00    -0.207 F   
ATOM     33  F2  UNL     1       1.368  -0.813   5.213  1.00  0.00    -0.207 F   
ENDBRANCH  25  26
ENDBRANCH   3  25
TORSDOF 7
