REMARK SMILES CC(C)C[C@H]([NH2+]Cc1ccc2c(c1)OCO2)c1cn(Cc2cccc(N(C)C)c2)nn1
REMARK SMILES IDX 17 1 18 2 19 3 30 4 31 5 5 7 4 8 2 9 1 10 3 11 6 12 7 15
REMARK SMILES IDX 8 16 9 17 13 18 10 19 12 20 11 21 14 22 16 23 15 24 20 25
REMARK SMILES IDX 21 26 22 27 29 28 23 29 25 30 24 31 26 32 27 33 28 34
REMARK H PARENT 18 6 6 13 6 14
ROOT
ATOM     1   C14 UNL     1       1.969   1.739  -0.760  1.00  0.00     0.127 A   
ATOM     2   C15 UNL     1       0.647   1.843  -0.390  1.00  0.00     0.046 A   
ATOM     3   N2  UNL     1      -0.029   1.814  -1.579  1.00  0.00    -0.208 N   
ATOM     4   N4  UNL     1       0.826   1.715  -2.617  1.00  0.00    -0.076 NA  
ATOM     5   N5  UNL     1       2.053   1.659  -2.127  1.00  0.00    -0.132 NA  
ATOM     6   H20 UNL     1       0.140   1.906   0.563  1.00  0.00     0.083 HD  
ENDROOT
BRANCH   1   7
ATOM     7   C5  UNL     1       3.222   1.639   0.047  1.00  0.00     0.114 C   
BRANCH   7   8
ATOM     8   C4  UNL     1       3.925   3.005   0.158  1.00  0.00     0.064 C   
BRANCH   8   9
ATOM     9   C2  UNL     1       5.162   3.047   1.080  1.00  0.00    -0.012 C   
ATOM     10  C1  UNL     1       4.821   2.701   2.531  1.00  0.00     0.007 C   
ATOM     11  C3  UNL     1       5.799   4.439   1.021  1.00  0.00     0.007 C   
ENDBRANCH   8   9
ENDBRANCH   7   8
BRANCH   7  12
ATOM     12  N1  UNL     1       4.154   0.651  -0.622  1.00  0.00     0.249 N   
ATOM     13  H11 UNL     1       5.095   1.040  -0.729  1.00  0.00     0.199 HD  
ATOM     14  H12 UNL     1       3.800   0.548  -1.588  1.00  0.00     0.199 HD  
BRANCH  12  15
ATOM     15  C6  UNL     1       4.234  -0.703  -0.009  1.00  0.00     0.164 C   
BRANCH  15  16
ATOM     16  C7  UNL     1       2.916  -1.422   0.051  1.00  0.00    -0.002 A   
ATOM     17  C8  UNL     1       2.314  -1.920  -1.130  1.00  0.00     0.012 A   
ATOM     18  C12 UNL     1       2.251  -1.571   1.280  1.00  0.00     0.045 A   
ATOM     19  C9  UNL     1       1.070  -2.558  -1.088  1.00  0.00     0.037 A   
ATOM     20  C11 UNL     1       1.022  -2.196   1.284  1.00  0.00     0.109 A   
ATOM     21  C10 UNL     1       0.449  -2.681   0.135  1.00  0.00     0.108 A   
ATOM     22  O1  UNL     1       0.248  -2.405   2.381  1.00  0.00    -0.316 OA  
ATOM     23  O2  UNL     1      -0.750  -3.275   0.365  1.00  0.00    -0.316 OA  
ATOM     24  C13 UNL     1      -0.899  -3.053   1.783  1.00  0.00     0.337 C   
ENDBRANCH  15  16
ENDBRANCH  12  15
ENDBRANCH   7  12
ENDBRANCH   1   7
BRANCH   3  25
ATOM     25  C16 UNL     1      -1.461   1.917  -1.802  1.00  0.00     0.169 C   
BRANCH  25  26
ATOM     26  C17 UNL     1      -2.140   0.584  -1.632  1.00  0.00    -0.027 A   
ATOM     27  C18 UNL     1      -2.063  -0.380  -2.640  1.00  0.00     0.005 A   
ATOM     28  C24 UNL     1      -2.851   0.286  -0.452  1.00  0.00     0.029 A   
ATOM     29  C19 UNL     1      -2.681  -1.611  -2.465  1.00  0.00     0.002 A   
ATOM     30  C21 UNL     1      -3.509  -0.943  -0.251  1.00  0.00     0.028 A   
ATOM     31  C20 UNL     1      -3.386  -1.885  -1.286  1.00  0.00     0.023 A   
BRANCH  30  32
ATOM     32  N3  UNL     1      -4.199  -1.215   0.944  1.00  0.00    -0.337 N   
ATOM     33  C22 UNL     1      -4.885  -0.085   1.581  1.00  0.00     0.129 C   
ATOM     34  C23 UNL     1      -4.909  -2.492   1.062  1.00  0.00     0.129 C   
ENDBRANCH  30  32
ENDBRANCH  25  26
ENDBRANCH   3  25
TORSDOF 9
