REMARK SMILES CC(C)[C@H]([NH2+]Cc1ccc2c(c1)OCO2)c1cn(Cc2cc3c([nH]2)CCCC3)nn1
REMARK SMILES IDX 16 1 17 2 18 3 29 4 30 5 4 7 2 8 1 9 3 10 5 11 6 14 7 15
REMARK SMILES IDX 8 16 12 17 9 18 11 19 10 20 13 21 15 22 14 23 19 24 20 25
REMARK SMILES IDX 21 26 24 27 22 28 23 29 28 30 25 31 27 32 26 33
REMARK H PARENT 17 6 5 12 5 13 24 34
ROOT
ATOM     1   C13 UNL     1      -0.295  -1.615  -1.842  1.00  0.00     0.127 A   
ATOM     2   C14 UNL     1       1.081  -1.603  -1.819  1.00  0.00     0.046 A   
ATOM     3   N2  UNL     1       1.403  -0.285  -2.004  1.00  0.00    -0.206 N   
ATOM     4   N4  UNL     1       0.291   0.467  -2.136  1.00  0.00    -0.076 NA  
ATOM     5   N5  UNL     1      -0.754  -0.337  -2.037  1.00  0.00    -0.132 NA  
ATOM     6   H18 UNL     1       1.835  -2.363  -1.666  1.00  0.00     0.083 HD  
ENDROOT
BRANCH   1   7
ATOM     7   C4  UNL     1      -1.275  -2.719  -1.610  1.00  0.00     0.117 C   
BRANCH   7   8
ATOM     8   C2  UNL     1      -1.784  -3.403  -2.905  1.00  0.00     0.037 C   
ATOM     9   C1  UNL     1      -2.504  -2.460  -3.876  1.00  0.00     0.014 C   
ATOM     10  C3  UNL     1      -0.653  -4.134  -3.637  1.00  0.00     0.014 C   
ENDBRANCH   7   8
BRANCH   7  11
ATOM     11  N1  UNL     1      -2.464  -2.191  -0.847  1.00  0.00     0.249 N   
ATOM     12  H9  UNL     1      -2.733  -1.301  -1.294  1.00  0.00     0.199 HD  
ATOM     13  H10 UNL     1      -3.274  -2.813  -0.931  1.00  0.00     0.199 HD  
BRANCH  11  14
ATOM     14  C5  UNL     1      -2.215  -1.898   0.593  1.00  0.00     0.164 C   
BRANCH  14  15
ATOM     15  C6  UNL     1      -3.449  -1.328   1.232  1.00  0.00    -0.002 A   
ATOM     16  C7  UNL     1      -4.354  -2.169   1.923  1.00  0.00     0.012 A   
ATOM     17  C11 UNL     1      -3.736   0.042   1.103  1.00  0.00     0.045 A   
ATOM     18  C8  UNL     1      -5.526  -1.652   2.486  1.00  0.00     0.037 A   
ATOM     19  C10 UNL     1      -4.902   0.517   1.666  1.00  0.00     0.109 A   
ATOM     20  C9  UNL     1      -5.771  -0.305   2.338  1.00  0.00     0.108 A   
ATOM     21  O1  UNL     1      -5.330   1.806   1.628  1.00  0.00    -0.316 OA  
ATOM     22  O2  UNL     1      -6.854   0.362   2.814  1.00  0.00    -0.316 OA  
ATOM     23  C12 UNL     1      -6.564   1.707   2.374  1.00  0.00     0.337 C   
ENDBRANCH  14  15
ENDBRANCH  11  14
ENDBRANCH   7  11
ENDBRANCH   1   7
BRANCH   3  24
ATOM     24  C15 UNL     1       2.722   0.326  -2.002  1.00  0.00     0.185 C   
BRANCH  24  25
ATOM     25  C16 UNL     1       3.105   0.708  -0.612  1.00  0.00     0.027 A   
ATOM     26  C17 UNL     1       3.941   0.084   0.299  1.00  0.00     0.026 A   
ATOM     27  N3  UNL     1       2.610   1.850  -0.018  1.00  0.00    -0.320 N   
ATOM     28  C18 UNL     1       3.939   0.865   1.478  1.00  0.00    -0.029 A   
ATOM     29  C19 UNL     1       3.106   1.940   1.251  1.00  0.00     0.010 A   
ATOM     30  C23 UNL     1       4.650   0.659   2.773  1.00  0.00     0.037 C   
ATOM     31  C20 UNL     1       2.827   3.051   2.203  1.00  0.00     0.051 C   
ATOM     32  C22 UNL     1       4.657   1.952   3.612  1.00  0.00     0.005 C   
ATOM     33  C21 UNL     1       3.283   2.651   3.618  1.00  0.00     0.006 C   
ATOM     34  H22 UNL     1       1.978   2.515  -0.449  1.00  0.00     0.152 HD  
ENDBRANCH  24  25
ENDBRANCH   3  24
TORSDOF 7
