REMARK SMILES C[C@H]1Cc2cc(Cn3cc([C@@H]([NH2+]Cc4ccc5c(c4)OCO5)C4CCCCC4)nn3)ccc2O1
REMARK SMILES IDX 8 1 9 2 10 3 29 4 30 5 7 7 6 8 2 9 3 10 34 11 4 12 33 13
REMARK SMILES IDX 5 14 32 15 31 16 1 17 11 18 12 19 13 22 14 23 15 24 19 25
REMARK SMILES IDX 16 26 18 27 17 28 20 29 22 30 21 31 23 32 24 33 28 34 25 35
REMARK SMILES IDX 27 36 26 37
REMARK H PARENT 9 6 12 20 12 21
ROOT
ATOM     1   N1  UNL     1      -1.850  -2.556  -1.683  1.00  0.00    -0.208 N   
ATOM     2   C8  UNL     1      -1.808  -2.034  -0.419  1.00  0.00     0.046 A   
ATOM     3   C9  UNL     1      -2.405  -0.800  -0.552  1.00  0.00     0.127 A   
ATOM     4   N3  UNL     1      -2.830  -0.639  -1.845  1.00  0.00    -0.132 NA  
ATOM     5   N4  UNL     1      -2.487  -1.720  -2.527  1.00  0.00    -0.076 NA  
ATOM     6   H10 UNL     1      -1.316  -2.539   0.401  1.00  0.00     0.083 HD  
ENDROOT
BRANCH   1   7
ATOM     7   C7  UNL     1      -1.186  -3.750  -2.178  1.00  0.00     0.169 C   
BRANCH   7   8
ATOM     8   C6  UNL     1       0.282  -3.466  -2.396  1.00  0.00    -0.028 A   
ATOM     9   C2  UNL     1       4.811  -2.973  -1.560  1.00  0.00     0.126 C   
ATOM     10  C3  UNL     1       3.759  -3.835  -0.841  1.00  0.00     0.070 C   
ATOM     11  O3  UNL     1       4.289  -2.560  -2.850  1.00  0.00    -0.343 OA  
ATOM     12  C4  UNL     1       2.562  -3.510  -1.649  1.00  0.00    -0.015 A   
ATOM     13  C27 UNL     1       2.947  -2.818  -2.783  1.00  0.00     0.079 A   
ATOM     14  C5  UNL     1       1.236  -3.850  -1.437  1.00  0.00     0.012 A   
ATOM     15  C26 UNL     1       2.041  -2.440  -3.750  1.00  0.00     0.034 A   
ATOM     16  C25 UNL     1       0.698  -2.764  -3.551  1.00  0.00     0.008 A   
ATOM     17  C1  UNL     1       5.187  -1.722  -0.772  1.00  0.00     0.039 C   
ENDBRANCH   7   8
ENDBRANCH   1   7
BRANCH   3  18
ATOM     18  C10 UNL     1      -2.523   0.337   0.410  1.00  0.00     0.117 C   
BRANCH  18  19
ATOM     19  N2  UNL     1      -1.973   1.594  -0.240  1.00  0.00     0.249 N   
ATOM     20  H12 UNL     1      -2.080   2.396   0.383  1.00  0.00     0.199 HD  
ATOM     21  H13 UNL     1      -2.551   1.766  -1.074  1.00  0.00     0.199 HD  
BRANCH  19  22
ATOM     22  C11 UNL     1      -0.545   1.550  -0.695  1.00  0.00     0.164 C   
BRANCH  22  23
ATOM     23  C12 UNL     1       0.426   1.275   0.419  1.00  0.00    -0.002 A   
ATOM     24  C13 UNL     1       0.642   2.232   1.440  1.00  0.00     0.012 A   
ATOM     25  C17 UNL     1       1.110   0.046   0.468  1.00  0.00     0.045 A   
ATOM     26  C14 UNL     1       1.512   1.965   2.503  1.00  0.00     0.037 A   
ATOM     27  C16 UNL     1       1.954  -0.188   1.534  1.00  0.00     0.109 A   
ATOM     28  C15 UNL     1       2.149   0.744   2.522  1.00  0.00     0.108 A   
ATOM     29  O1  UNL     1       2.669  -1.325   1.743  1.00  0.00    -0.316 OA  
ATOM     30  O2  UNL     1       3.017   0.316   3.474  1.00  0.00    -0.316 OA  
ATOM     31  C18 UNL     1       3.373  -0.985   2.959  1.00  0.00     0.337 C   
ENDBRANCH  22  23
ENDBRANCH  19  22
ENDBRANCH  18  19
BRANCH  18  32
ATOM     32  C19 UNL     1      -3.998   0.584   0.853  1.00  0.00     0.043 C   
ATOM     33  C20 UNL     1      -4.141   1.805   1.787  1.00  0.00     0.010 C   
ATOM     34  C24 UNL     1      -4.573  -0.671   1.550  1.00  0.00     0.010 C   
ATOM     35  C21 UNL     1      -5.570   1.994   2.294  1.00  0.00     0.001 C   
ATOM     36  C23 UNL     1      -6.001  -0.464   2.049  1.00  0.00     0.001 C   
ATOM     37  C22 UNL     1      -6.103   0.741   2.973  1.00  0.00     0.000 C   
ENDBRANCH  18  32
ENDBRANCH   3  18
TORSDOF 7
