REMARK SMILES Cc1ccc([C@H](O)Cn2cc([C@@H]([NH2+]Cc3ccc4c(c3)OCO4)C(C)C)nn2)cc1
REMARK SMILES IDX 9 1 10 2 11 3 27 4 28 5 8 7 6 8 5 9 2 10 3 11 30 12 4 13
REMARK SMILES IDX 29 14 1 15 7 16 12 18 13 19 14 22 15 23 16 24 20 25 17 26
REMARK SMILES IDX 19 27 18 28 21 29 23 30 22 31 24 32 25 33 26 34
REMARK H PARENT 10 6 7 17 13 20 13 21
ROOT
ATOM     1   N1  UNL     1       2.110   1.470  -1.042  1.00  0.00    -0.209 N   
ATOM     2   C8  UNL     1       1.315   1.447   0.069  1.00  0.00     0.045 A   
ATOM     3   C9  UNL     1       0.474   0.379  -0.146  1.00  0.00     0.127 A   
ATOM     4   N3  UNL     1       0.744  -0.162  -1.379  1.00  0.00    -0.132 NA  
ATOM     5   N4  UNL     1       1.744   0.516  -1.916  1.00  0.00    -0.076 NA  
ATOM     6   H10 UNL     1       1.444   2.142   0.887  1.00  0.00     0.083 HD  
ENDROOT
BRANCH   1   7
ATOM     7   C7  UNL     1       3.214   2.356  -1.332  1.00  0.00     0.170 C   
BRANCH   7   8
ATOM     8   C6  UNL     1       4.572   1.753  -0.962  1.00  0.00     0.164 C   
BRANCH   8   9
ATOM     9   C5  UNL     1       4.716   1.480   0.522  1.00  0.00    -0.018 A   
ATOM     10  C2  UNL     1       4.916   0.956   3.287  1.00  0.00    -0.051 A   
ATOM     11  C3  UNL     1       4.873  -0.097   2.366  1.00  0.00     0.004 A   
ATOM     12  C23 UNL     1       4.885   2.273   2.815  1.00  0.00     0.004 A   
ATOM     13  C4  UNL     1       4.766   0.162   0.997  1.00  0.00     0.007 A   
ATOM     14  C22 UNL     1       4.784   2.533   1.448  1.00  0.00     0.007 A   
ATOM     15  C1  UNL     1       5.074   0.679   4.753  1.00  0.00     0.044 C   
ENDBRANCH   8   9
BRANCH   8  16
ATOM     16  O1  UNL     1       5.601   2.659  -1.368  1.00  0.00    -0.387 OA  
ATOM     17  H7  UNL     1       6.425   2.379  -0.929  1.00  0.00     0.211 HD  
ENDBRANCH   8  16
ENDBRANCH   7   8
ENDBRANCH   1   7
BRANCH   3  18
ATOM     18  C10 UNL     1      -0.626  -0.195   0.684  1.00  0.00     0.117 C   
BRANCH  18  19
ATOM     19  N2  UNL     1      -1.713  -0.742  -0.210  1.00  0.00     0.249 N   
ATOM     20  H12 UNL     1      -1.246  -1.272  -0.962  1.00  0.00     0.199 HD  
ATOM     21  H13 UNL     1      -2.312  -1.409   0.288  1.00  0.00     0.199 HD  
BRANCH  19  22
ATOM     22  C11 UNL     1      -2.565   0.288  -0.868  1.00  0.00     0.164 C   
BRANCH  22  23
ATOM     23  C12 UNL     1      -3.603  -0.362  -1.737  1.00  0.00    -0.002 A   
ATOM     24  C13 UNL     1      -4.875  -0.692  -1.212  1.00  0.00     0.012 A   
ATOM     25  C17 UNL     1      -3.294  -0.694  -3.067  1.00  0.00     0.045 A   
ATOM     26  C14 UNL     1      -5.837  -1.327  -2.007  1.00  0.00     0.037 A   
ATOM     27  C16 UNL     1      -4.266  -1.317  -3.824  1.00  0.00     0.109 A   
ATOM     28  C15 UNL     1      -5.503  -1.621  -3.310  1.00  0.00     0.108 A   
ATOM     29  O2  UNL     1      -4.130  -1.708  -5.118  1.00  0.00    -0.316 OA  
ATOM     30  O3  UNL     1      -6.303  -2.236  -4.218  1.00  0.00    -0.316 OA  
ATOM     31  C18 UNL     1      -5.443  -2.253  -5.378  1.00  0.00     0.337 C   
ENDBRANCH  22  23
ENDBRANCH  19  22
ENDBRANCH  18  19
BRANCH  18  32
ATOM     32  C19 UNL     1      -0.171  -1.322   1.648  1.00  0.00     0.037 C   
ATOM     33  C20 UNL     1       0.747  -0.784   2.751  1.00  0.00     0.014 C   
ATOM     34  C21 UNL     1       0.502  -2.510   0.951  1.00  0.00     0.014 C   
ENDBRANCH  18  32
ENDBRANCH   3  18
TORSDOF 9
