REMARK SMILES Cc1ccc([C@@H](O)Cn2cc([C@@H]([NH2+]Cc3ccc4c(c3)OCO4)C(C)C)nn2)cc1
REMARK SMILES IDX 9 1 10 2 11 3 27 4 28 5 8 7 6 8 5 9 2 10 3 11 30 12 4 13
REMARK SMILES IDX 29 14 1 15 7 16 12 18 13 19 14 22 15 23 16 24 20 25 17 26
REMARK SMILES IDX 19 27 18 28 21 29 23 30 22 31 24 32 25 33 26 34
REMARK H PARENT 10 6 7 17 13 20 13 21
ROOT
ATOM     1   N1  UNL     1      -3.516  -0.301   1.196  1.00  0.00    -0.209 N   
ATOM     2   C8  UNL     1      -2.852   0.496   0.307  1.00  0.00     0.045 A   
ATOM     3   C9  UNL     1      -2.746  -0.286  -0.822  1.00  0.00     0.127 A   
ATOM     4   N3  UNL     1      -3.335  -1.501  -0.586  1.00  0.00    -0.132 NA  
ATOM     5   N4  UNL     1      -3.799  -1.498   0.653  1.00  0.00    -0.076 NA  
ATOM     6   H10 UNL     1      -2.512   1.491   0.558  1.00  0.00     0.083 HD  
ENDROOT
BRANCH   1   7
ATOM     7   C7  UNL     1      -3.853  -0.012   2.571  1.00  0.00     0.170 C   
BRANCH   7   8
ATOM     8   C6  UNL     1      -3.122  -0.909   3.574  1.00  0.00     0.164 C   
BRANCH   8   9
ATOM     9   C5  UNL     1      -1.611  -0.837   3.462  1.00  0.00    -0.018 A   
ATOM     10  C2  UNL     1       1.199  -0.727   3.245  1.00  0.00    -0.051 A   
ATOM     11  C3  UNL     1       0.479   0.382   3.703  1.00  0.00     0.004 A   
ATOM     12  C23 UNL     1       0.507  -1.896   2.913  1.00  0.00     0.004 A   
ATOM     13  C4  UNL     1      -0.913   0.330   3.806  1.00  0.00     0.007 A   
ATOM     14  C22 UNL     1      -0.885  -1.949   3.014  1.00  0.00     0.007 A   
ATOM     15  C1  UNL     1       2.698  -0.682   3.186  1.00  0.00     0.044 C   
ENDBRANCH   8   9
BRANCH   8  16
ATOM     16  O1  UNL     1      -3.508  -0.522   4.896  1.00  0.00    -0.387 OA  
ATOM     17  H7  UNL     1      -2.882  -0.939   5.516  1.00  0.00     0.211 HD  
ENDBRANCH   8  16
ENDBRANCH   7   8
ENDBRANCH   1   7
BRANCH   3  18
ATOM     18  C10 UNL     1      -2.057  -0.040  -2.126  1.00  0.00     0.117 C   
BRANCH  18  19
ATOM     19  N2  UNL     1      -1.202  -1.244  -2.471  1.00  0.00     0.249 N   
ATOM     20  H12 UNL     1      -1.839  -2.051  -2.504  1.00  0.00     0.199 HD  
ATOM     21  H13 UNL     1      -0.789  -1.136  -3.400  1.00  0.00     0.199 HD  
BRANCH  19  22
ATOM     22  C11 UNL     1      -0.103  -1.579  -1.513  1.00  0.00     0.164 C   
BRANCH  22  23
ATOM     23  C12 UNL     1       0.961  -0.519  -1.449  1.00  0.00    -0.002 A   
ATOM     24  C13 UNL     1       1.024   0.358  -0.340  1.00  0.00     0.012 A   
ATOM     25  C17 UNL     1       1.880  -0.369  -2.500  1.00  0.00     0.045 A   
ATOM     26  C14 UNL     1       1.985   1.373  -0.276  1.00  0.00     0.037 A   
ATOM     27  C16 UNL     1       2.815   0.641  -2.406  1.00  0.00     0.109 A   
ATOM     28  C15 UNL     1       2.866   1.488  -1.327  1.00  0.00     0.108 A   
ATOM     29  O2  UNL     1       3.770   0.921  -3.331  1.00  0.00    -0.316 OA  
ATOM     30  O3  UNL     1       3.859   2.407  -1.435  1.00  0.00    -0.316 OA  
ATOM     31  C18 UNL     1       4.447   2.032  -2.699  1.00  0.00     0.337 C   
ENDBRANCH  22  23
ENDBRANCH  19  22
ENDBRANCH  18  19
BRANCH  18  32
ATOM     32  C19 UNL     1      -3.066   0.215  -3.283  1.00  0.00     0.037 C   
ATOM     33  C20 UNL     1      -3.933   1.453  -3.002  1.00  0.00     0.014 C   
ATOM     34  C21 UNL     1      -2.378   0.410  -4.641  1.00  0.00     0.014 C   
ENDBRANCH  18  32
ENDBRANCH   3  18
TORSDOF 9
