REMARK SMILES CC(C)(C)[C@H]([NH2+]Cc1ccc2c(c1)OCO2)c1cn([C@@H](CO)c2ccsc2)nn1
REMARK SMILES IDX 17 1 18 2 19 3 28 4 29 5 5 7 2 8 1 9 3 10 4 11 6 12 7 15
REMARK SMILES IDX 8 16 9 17 13 18 10 19 12 20 11 21 14 22 16 23 15 24 20 25
REMARK SMILES IDX 21 26 22 27 23 29 24 30 27 31 25 32 26 33
REMARK H PARENT 18 6 6 13 6 14 22 28
ROOT
ATOM     1   C14 UNL     1       1.390  -0.104   0.013  1.00  0.00     0.127 A   
ATOM     2   C15 UNL     1       1.071   0.011   1.346  1.00  0.00     0.046 A   
ATOM     3   N2  UNL     1       2.137   0.676   1.892  1.00  0.00    -0.202 N   
ATOM     4   N3  UNL     1       3.027   1.009   0.932  1.00  0.00    -0.075 NA  
ATOM     5   N4  UNL     1       2.585   0.527  -0.219  1.00  0.00    -0.132 NA  
ATOM     6   H20 UNL     1       0.226  -0.309   1.940  1.00  0.00     0.083 HD  
ENDROOT
BRANCH   1   7
ATOM     7   C5  UNL     1       0.628  -0.701  -1.129  1.00  0.00     0.120 C   
BRANCH   7   8
ATOM     8   C2  UNL     1       1.020  -2.186  -1.457  1.00  0.00     0.010 C   
ATOM     9   C1  UNL     1       2.471  -2.325  -1.958  1.00  0.00     0.017 C   
ATOM     10  C3  UNL     1       0.854  -3.070  -0.200  1.00  0.00     0.017 C   
ATOM     11  C4  UNL     1       0.077  -2.762  -2.539  1.00  0.00     0.017 C   
ENDBRANCH   7   8
BRANCH   7  12
ATOM     12  N1  UNL     1       0.814   0.176  -2.353  1.00  0.00     0.250 N   
ATOM     13  H11 UNL     1       1.827   0.333  -2.440  1.00  0.00     0.199 HD  
ATOM     14  H12 UNL     1       0.506  -0.303  -3.201  1.00  0.00     0.199 HD  
BRANCH  12  15
ATOM     15  C6  UNL     1       0.165   1.521  -2.303  1.00  0.00     0.164 C   
BRANCH  15  16
ATOM     16  C7  UNL     1      -1.337   1.445  -2.296  1.00  0.00    -0.002 A   
ATOM     17  C8  UNL     1      -2.061   1.758  -1.120  1.00  0.00     0.012 A   
ATOM     18  C12 UNL     1      -2.031   1.032  -3.446  1.00  0.00     0.045 A   
ATOM     19  C9  UNL     1      -3.456   1.655  -1.086  1.00  0.00     0.037 A   
ATOM     20  C11 UNL     1      -3.406   0.940  -3.378  1.00  0.00     0.109 A   
ATOM     21  C10 UNL     1      -4.099   1.242  -2.232  1.00  0.00     0.108 A   
ATOM     22  O1  UNL     1      -4.222   0.552  -4.392  1.00  0.00    -0.316 OA  
ATOM     23  O2  UNL     1      -5.439   1.083  -2.381  1.00  0.00    -0.316 OA  
ATOM     24  C13 UNL     1      -5.518   0.668  -3.761  1.00  0.00     0.337 C   
ENDBRANCH  15  16
ENDBRANCH  12  15
ENDBRANCH   7  12
ENDBRANCH   1   7
BRANCH   3  25
ATOM     25  C16 UNL     1       2.382   1.053   3.284  1.00  0.00     0.156 C   
BRANCH  25  26
ATOM     26  C17 UNL     1       1.689   2.380   3.640  1.00  0.00     0.185 C   
BRANCH  26  27
ATOM     27  O3  UNL     1       0.279   2.358   3.400  1.00  0.00    -0.394 OA  
ATOM     28  H24 UNL     1      -0.081   3.188   3.767  1.00  0.00     0.210 HD  
ENDBRANCH  26  27
ENDBRANCH  25  26
BRANCH  25  29
ATOM     29  C18 UNL     1       2.090  -0.111   4.216  1.00  0.00    -0.016 A   
ATOM     30  C19 UNL     1       0.865  -0.349   4.931  1.00  0.00     0.013 A   
ATOM     31  C21 UNL     1       3.004  -1.119   4.489  1.00  0.00     0.051 A   
ATOM     32  C20 UNL     1       0.901  -1.497   5.691  1.00  0.00     0.046 A   
ATOM     33  S1  UNL     1       2.397  -2.306   5.557  1.00  0.00    -0.106 S   
ENDBRANCH  25  29
ENDBRANCH   3  25
TORSDOF 9
