REMARK SMILES CC(C)(C)[C@H]([NH2+]Cc1ccc2c(c1)OCO2)c1cn([C@H](CO)c2ccsc2)nn1
REMARK SMILES IDX 17 1 18 2 19 3 28 4 29 5 5 7 2 8 1 9 3 10 4 11 6 12 7 15
REMARK SMILES IDX 8 16 9 17 13 18 10 19 12 20 11 21 14 22 16 23 15 24 20 25
REMARK SMILES IDX 21 26 22 27 23 29 24 30 27 31 25 32 26 33
REMARK H PARENT 18 6 6 13 6 14 22 28
ROOT
ATOM     1   C14 UNL     1       0.121   0.801   1.204  1.00  0.00     0.127 A   
ATOM     2   C15 UNL     1       1.247   1.327   1.793  1.00  0.00     0.046 A   
ATOM     3   N2  UNL     1       1.633   0.375   2.699  1.00  0.00    -0.202 N   
ATOM     4   N3  UNL     1       0.804  -0.691   2.644  1.00  0.00    -0.075 NA  
ATOM     5   N4  UNL     1      -0.125  -0.439   1.736  1.00  0.00    -0.132 NA  
ATOM     6   H20 UNL     1       1.791   2.253   1.667  1.00  0.00     0.083 HD  
ENDROOT
BRANCH   1   7
ATOM     7   C5  UNL     1      -0.744   1.315   0.094  1.00  0.00     0.120 C   
BRANCH   7   8
ATOM     8   C2  UNL     1      -2.001   2.120   0.578  1.00  0.00     0.010 C   
ATOM     9   C1  UNL     1      -1.565   3.300   1.476  1.00  0.00     0.017 C   
ATOM     10  C3  UNL     1      -2.746   2.730  -0.632  1.00  0.00     0.017 C   
ATOM     11  C4  UNL     1      -2.997   1.250   1.370  1.00  0.00     0.017 C   
ENDBRANCH   7   8
BRANCH   7  12
ATOM     12  N1  UNL     1      -1.165   0.147  -0.766  1.00  0.00     0.250 N   
ATOM     13  H11 UNL     1      -1.976   0.360  -1.351  1.00  0.00     0.199 HD  
ATOM     14  H12 UNL     1      -1.464  -0.600  -0.120  1.00  0.00     0.199 HD  
BRANCH  12  15
ATOM     15  C6  UNL     1      -0.093  -0.426  -1.628  1.00  0.00     0.164 C   
BRANCH  15  16
ATOM     16  C7  UNL     1      -0.603  -1.635  -2.359  1.00  0.00    -0.002 A   
ATOM     17  C8  UNL     1      -0.543  -2.911  -1.748  1.00  0.00     0.012 A   
ATOM     18  C12 UNL     1      -1.194  -1.501  -3.626  1.00  0.00     0.045 A   
ATOM     19  C9  UNL     1      -1.054  -4.042  -2.393  1.00  0.00     0.037 A   
ATOM     20  C11 UNL     1      -1.688  -2.636  -4.235  1.00  0.00     0.109 A   
ATOM     21  C10 UNL     1      -1.620  -3.871  -3.637  1.00  0.00     0.108 A   
ATOM     22  O1  UNL     1      -2.288  -2.681  -5.454  1.00  0.00    -0.316 OA  
ATOM     23  O2  UNL     1      -2.166  -4.849  -4.405  1.00  0.00    -0.316 OA  
ATOM     24  C13 UNL     1      -2.568  -4.095  -5.569  1.00  0.00     0.337 C   
ENDBRANCH  15  16
ENDBRANCH  12  15
ENDBRANCH   7  12
ENDBRANCH   1   7
BRANCH   3  25
ATOM     25  C16 UNL     1       2.782   0.369   3.603  1.00  0.00     0.156 C   
BRANCH  25  26
ATOM     26  C17 UNL     1       2.659   1.425   4.718  1.00  0.00     0.185 C   
BRANCH  26  27
ATOM     27  O3  UNL     1       2.549   2.760   4.220  1.00  0.00    -0.394 OA  
ATOM     28  H24 UNL     1       2.558   3.353   4.995  1.00  0.00     0.210 HD  
ENDBRANCH  26  27
ENDBRANCH  25  26
BRANCH  25  29
ATOM     29  C18 UNL     1       4.074   0.403   2.806  1.00  0.00    -0.016 A   
ATOM     30  C19 UNL     1       4.777  -0.782   2.384  1.00  0.00     0.013 A   
ATOM     31  C21 UNL     1       4.746   1.534   2.373  1.00  0.00     0.051 A   
ATOM     32  C20 UNL     1       5.917  -0.502   1.664  1.00  0.00     0.046 A   
ATOM     33  S1  UNL     1       6.160   1.177   1.480  1.00  0.00    -0.106 S   
ENDBRANCH  25  29
ENDBRANCH   3  25
TORSDOF 9
