REMARK SMILES CC(C)C[C@H]([NH2+]Cc1ccc2c(c1)OCO2)c1cn(C(=O)c2c[nH]c3ccccc23)nn1
REMARK SMILES IDX 17 1 18 2 19 3 31 4 32 5 5 6 4 7 2 8 1 9 3 10 6 11 7 14 8 15
REMARK SMILES IDX 9 16 13 17 10 18 12 19 11 20 14 21 16 22 15 23 20 24 21 25
REMARK SMILES IDX 22 26 23 27 30 28 24 29 25 30 29 31 26 32 28 33 27 34
REMARK H PARENT 6 12 6 13 24 35
ROOT
ATOM     1   C14 UNL     1       1.196   1.573   0.657  1.00  0.00     0.127 A   
ATOM     2   C15 UNL     1       2.555   1.381   0.603  1.00  0.00     0.139 A   
ATOM     3   N2  UNL     1       2.725   0.023   0.364  1.00  0.00    -0.143 N   
ATOM     4   N4  UNL     1       1.498  -0.552   0.263  1.00  0.00    -0.068 NA  
ATOM     5   N5  UNL     1       0.570   0.375   0.444  1.00  0.00    -0.131 NA  
ENDROOT
BRANCH   1   6
ATOM     6   C5  UNL     1       0.384   2.806   0.890  1.00  0.00     0.114 C   
BRANCH   6   7
ATOM     7   C4  UNL     1       0.468   3.331   2.338  1.00  0.00     0.064 C   
BRANCH   7   8
ATOM     8   C2  UNL     1       0.219   2.342   3.500  1.00  0.00    -0.012 C   
ATOM     9   C1  UNL     1       0.513   3.048   4.831  1.00  0.00     0.007 C   
ATOM     10  C3  UNL     1      -1.199   1.774   3.542  1.00  0.00     0.007 C   
ENDBRANCH   7   8
ENDBRANCH   6   7
BRANCH   6  11
ATOM     11  N1  UNL     1      -1.052   2.605   0.500  1.00  0.00     0.249 N   
ATOM     12  H11 UNL     1      -1.677   3.239   1.009  1.00  0.00     0.199 HD  
ATOM     13  H12 UNL     1      -1.314   1.649   0.781  1.00  0.00     0.199 HD  
BRANCH  11  14
ATOM     14  C6  UNL     1      -1.338   2.708  -0.959  1.00  0.00     0.164 C   
BRANCH  14  15
ATOM     15  C7  UNL     1      -2.780   2.386  -1.231  1.00  0.00    -0.002 A   
ATOM     16  C8  UNL     1      -3.742   3.420  -1.320  1.00  0.00     0.012 A   
ATOM     17  C12 UNL     1      -3.190   1.046  -1.339  1.00  0.00     0.045 A   
ATOM     18  C9  UNL     1      -5.095   3.125  -1.525  1.00  0.00     0.037 A   
ATOM     19  C11 UNL     1      -4.531   0.790  -1.538  1.00  0.00     0.109 A   
ATOM     20  C10 UNL     1      -5.457   1.800  -1.629  1.00  0.00     0.108 A   
ATOM     21  O1  UNL     1      -5.091  -0.442  -1.658  1.00  0.00    -0.316 OA  
ATOM     22  O2  UNL     1      -6.717   1.331  -1.820  1.00  0.00    -0.316 OA  
ATOM     23  C13 UNL     1      -6.481  -0.093  -1.855  1.00  0.00     0.337 C   
ENDBRANCH  14  15
ENDBRANCH  11  14
ENDBRANCH   6  11
ENDBRANCH   1   6
BRANCH   3  24
ATOM     24  C16 UNL     1       3.936  -0.696   0.267  1.00  0.00     0.272 C   
ATOM     25  O3  UNL     1       4.942  -0.019   0.481  1.00  0.00    -0.269 OA  
BRANCH  24  26
ATOM     26  C17 UNL     1       4.040  -2.127  -0.046  1.00  0.00     0.062 A   
ATOM     27  C18 UNL     1       3.064  -2.953  -0.580  1.00  0.00     0.086 A   
ATOM     28  C24 UNL     1       5.210  -2.950   0.120  1.00  0.00     0.010 A   
ATOM     29  N3  UNL     1       3.580  -4.215  -0.720  1.00  0.00    -0.320 N   
ATOM     30  C19 UNL     1       4.888  -4.240  -0.303  1.00  0.00     0.038 A   
ATOM     31  C23 UNL     1       6.518  -2.718   0.602  1.00  0.00     0.011 A   
ATOM     32  C20 UNL     1       5.799  -5.304  -0.271  1.00  0.00     0.024 A   
ATOM     33  C22 UNL     1       7.441  -3.770   0.642  1.00  0.00     0.001 A   
ATOM     34  C21 UNL     1       7.084  -5.044   0.211  1.00  0.00     0.002 A   
ATOM     35  H22 UNL     1       3.081  -5.018  -1.083  1.00  0.00     0.152 HD  
ENDBRANCH  24  26
ENDBRANCH   3  24
TORSDOF 8
