REMARK SMILES Cc1cccc(Cn2cc([C@@H]([NH2+]Cc3ccc4c(c3)OCO4)C3CCCC3)nn2)c1N([O-])[O-]
REMARK SMILES IDX 8 1 9 2 10 3 28 4 29 5 7 7 6 8 2 9 3 10 30 11 4 12 5 13 1 14
REMARK SMILES IDX 31 15 32 16 33 17 11 18 12 19 13 22 14 23 15 24 19 25 16 26
REMARK SMILES IDX 18 27 17 28 20 29 22 30 21 31 23 32 24 33 27 34 25 35 26 36
REMARK H PARENT 9 6 12 20 12 21
ROOT
ATOM     1   N1  UNL     1      -0.184  -2.535  -1.543  1.00  0.00    -0.208 N   
ATOM     2   C8  UNL     1       0.392  -1.540  -2.284  1.00  0.00     0.046 A   
ATOM     3   C9  UNL     1       1.013  -0.748  -1.344  1.00  0.00     0.127 A   
ATOM     4   N3  UNL     1       0.866  -1.318  -0.106  1.00  0.00    -0.132 NA  
ATOM     5   N4  UNL     1       0.140  -2.415  -0.242  1.00  0.00    -0.076 NA  
ATOM     6   H9  UNL     1       0.246  -1.451  -3.352  1.00  0.00     0.083 HD  
ENDROOT
BRANCH   1   7
ATOM     7   C7  UNL     1      -1.125  -3.553  -1.988  1.00  0.00     0.171 C   
BRANCH   7   8
ATOM     8   C6  UNL     1      -2.482  -3.425  -1.323  1.00  0.00     0.000 A   
ATOM     9   C2  UNL     1      -4.586  -2.219  -0.811  1.00  0.00    -0.022 A   
ATOM     10  C3  UNL     1      -4.995  -3.309  -0.033  1.00  0.00     0.005 A   
ATOM     11  C24 UNL     1      -3.325  -2.293  -1.439  1.00  0.00     0.125 A   
ATOM     12  C4  UNL     1      -4.183  -4.436   0.099  1.00  0.00     0.001 A   
ATOM     13  C5  UNL     1      -2.944  -4.497  -0.541  1.00  0.00     0.007 A   
ATOM     14  C1  UNL     1      -5.488  -1.020  -0.921  1.00  0.00     0.046 C   
BRANCH  11  15
ATOM     15  N5  UNL     1      -2.881  -1.157  -2.233  1.00  0.00     0.093 N   
ATOM     16  O3  UNL     1      -2.728  -1.343  -3.447  1.00  0.00    -0.138 OA  
ATOM     17  O4  UNL     1      -2.614  -0.105  -1.632  1.00  0.00    -0.138 OA  
ENDBRANCH  11  15
ENDBRANCH   7   8
ENDBRANCH   1   7
BRANCH   3  18
ATOM     18  C10 UNL     1       1.675   0.585  -1.468  1.00  0.00     0.117 C   
BRANCH  18  19
ATOM     19  N2  UNL     1       1.326   1.443  -0.283  1.00  0.00     0.249 N   
ATOM     20  H11 UNL     1       1.950   2.248  -0.188  1.00  0.00     0.199 HD  
ATOM     21  H12 UNL     1       1.462   0.865   0.558  1.00  0.00     0.199 HD  
BRANCH  19  22
ATOM     22  C11 UNL     1      -0.088   1.921  -0.244  1.00  0.00     0.164 C   
BRANCH  22  23
ATOM     23  C12 UNL     1      -0.310   2.795   0.959  1.00  0.00    -0.002 A   
ATOM     24  C13 UNL     1      -0.122   4.196   0.873  1.00  0.00     0.012 A   
ATOM     25  C17 UNL     1      -0.656   2.216   2.192  1.00  0.00     0.045 A   
ATOM     26  C14 UNL     1      -0.288   5.012   1.997  1.00  0.00     0.037 A   
ATOM     27  C16 UNL     1      -0.814   3.050   3.279  1.00  0.00     0.109 A   
ATOM     28  C15 UNL     1      -0.635   4.407   3.185  1.00  0.00     0.108 A   
ATOM     29  O1  UNL     1      -1.151   2.656   4.535  1.00  0.00    -0.316 OA  
ATOM     30  O2  UNL     1      -0.839   5.040   4.369  1.00  0.00    -0.316 OA  
ATOM     31  C18 UNL     1      -1.189   3.928   5.220  1.00  0.00     0.337 C   
ENDBRANCH  22  23
ENDBRANCH  19  22
ENDBRANCH  18  19
BRANCH  18  32
ATOM     32  C19 UNL     1       3.201   0.453  -1.629  1.00  0.00     0.043 C   
ATOM     33  C20 UNL     1       3.980  -0.062  -0.411  1.00  0.00     0.010 C   
ATOM     34  C23 UNL     1       3.924   1.756  -1.979  1.00  0.00     0.010 C   
ATOM     35  C21 UNL     1       5.407   0.470  -0.577  1.00  0.00     0.001 C   
ATOM     36  C22 UNL     1       5.388   1.383  -1.799  1.00  0.00     0.001 C   
ENDBRANCH  18  32
ENDBRANCH   3  18
TORSDOF 8
