REMARK SMILES COc1c(C)cnc(Cn2cc([C@H](CC(C)C)[NH2+]Cc3ccc4c(c3)OCO4)nn2)c1C
REMARK SMILES IDX 10 1 11 2 12 3 29 4 30 5 9 7 8 8 3 9 4 10 31 11 6 12 7 13
REMARK SMILES IDX 5 14 32 15 2 16 1 17 13 18 14 19 15 20 16 21 17 22 18 23
REMARK SMILES IDX 19 26 20 27 21 28 25 29 22 30 24 31 23 32 26 33 28 34 27 35
REMARK H PARENT 11 6 18 24 18 25
ROOT
ATOM     1   N2  UNL     1      -2.120  -0.848   0.041  1.00  0.00    -0.206 N   
ATOM     2   C8  UNL     1      -1.035  -1.206   0.794  1.00  0.00     0.046 A   
ATOM     3   C9  UNL     1      -0.946  -0.213   1.742  1.00  0.00     0.127 A   
ATOM     4   N4  UNL     1      -1.992   0.659   1.583  1.00  0.00    -0.132 NA  
ATOM     5   N5  UNL     1      -2.706   0.258   0.542  1.00  0.00    -0.076 NA  
ATOM     6   H10 UNL     1      -0.413  -2.054   0.538  1.00  0.00     0.083 HD  
ENDROOT
BRANCH   1   7
ATOM     7   C7  UNL     1      -2.577  -1.444  -1.201  1.00  0.00     0.190 C   
BRANCH   7   8
ATOM     8   C6  UNL     1      -1.640  -1.056  -2.318  1.00  0.00     0.065 A   
ATOM     9   C2  UNL     1      -0.917   0.286  -4.161  1.00  0.00     0.084 A   
ATOM     10  C3  UNL     1       0.281  -0.431  -4.215  1.00  0.00    -0.002 A   
ATOM     11  C23 UNL     1      -1.886   0.020  -3.180  1.00  0.00     0.003 A   
ATOM     12  C5  UNL     1       0.421  -1.475  -3.319  1.00  0.00     0.117 A   
ATOM     13  N1  UNL     1      -0.499  -1.797  -2.383  1.00  0.00    -0.259 NA  
ATOM     14  C4  UNL     1       1.359  -0.140  -5.212  1.00  0.00     0.049 C   
ATOM     15  C24 UNL     1      -3.143   0.840  -3.087  1.00  0.00     0.049 C   
BRANCH   9  16
ATOM     16  O1  UNL     1      -1.105   1.330  -5.034  1.00  0.00    -0.349 OA  
ATOM     17  C1  UNL     1      -1.760   0.877  -6.223  1.00  0.00     0.203 C   
ENDBRANCH   9  16
ENDBRANCH   7   8
ENDBRANCH   1   7
BRANCH   3  18
ATOM     18  C10 UNL     1       0.117   0.075   2.742  1.00  0.00     0.114 C   
BRANCH  18  19
ATOM     19  C11 UNL     1      -0.339  -0.190   4.190  1.00  0.00     0.064 C   
BRANCH  19  20
ATOM     20  C12 UNL     1      -0.705  -1.657   4.502  1.00  0.00    -0.012 C   
ATOM     21  C13 UNL     1       0.474  -2.609   4.295  1.00  0.00     0.007 C   
ATOM     22  C14 UNL     1      -1.209  -1.767   5.944  1.00  0.00     0.007 C   
ENDBRANCH  19  20
ENDBRANCH  18  19
BRANCH  18  23
ATOM     23  N3  UNL     1       0.520   1.538   2.670  1.00  0.00     0.249 N   
ATOM     24  H21 UNL     1       1.186   1.750   3.417  1.00  0.00     0.199 HD  
ATOM     25  H22 UNL     1      -0.334   2.082   2.852  1.00  0.00     0.199 HD  
BRANCH  23  26
ATOM     26  C15 UNL     1       1.069   2.017   1.363  1.00  0.00     0.164 C   
BRANCH  26  27
ATOM     27  C16 UNL     1       2.310   1.290   0.925  1.00  0.00    -0.002 A   
ATOM     28  C17 UNL     1       3.529   1.456   1.625  1.00  0.00     0.012 A   
ATOM     29  C21 UNL     1       2.260   0.420  -0.180  1.00  0.00     0.045 A   
ATOM     30  C18 UNL     1       4.679   0.759   1.239  1.00  0.00     0.037 A   
ATOM     31  C20 UNL     1       3.412  -0.249  -0.536  1.00  0.00     0.109 A   
ATOM     32  C19 UNL     1       4.587  -0.087   0.156  1.00  0.00     0.108 A   
ATOM     33  O2  UNL     1       3.535  -1.123  -1.570  1.00  0.00    -0.316 OA  
ATOM     34  O3  UNL     1       5.597  -0.838  -0.353  1.00  0.00    -0.316 OA  
ATOM     35  C22 UNL     1       4.932  -1.480  -1.462  1.00  0.00     0.337 C   
ENDBRANCH  26  27
ENDBRANCH  23  26
ENDBRANCH  18  23
ENDBRANCH   3  18
TORSDOF 9
