REMARK SMILES COc1cc(F)ccc1CCn1cc([C@@H]([NH2+]Cc2ccc3c(c2)OCO3)C(C)(C)C)nn1
REMARK SMILES IDX 12 1 13 2 14 3 31 4 32 5 11 7 10 8 9 9 3 10 4 11 5 12 8 13
REMARK SMILES IDX 7 14 6 15 2 16 1 17 15 18 16 19 17 22 18 23 19 24 23 25
REMARK SMILES IDX 20 26 22 27 21 28 24 29 26 30 25 31 27 32 28 33 29 34 30 35
REMARK H PARENT 13 6 16 20 16 21
ROOT
ATOM     1   N1  UNL     1       1.465  -1.465   2.709  1.00  0.00    -0.212 N   
ATOM     2   C10 UNL     1       1.663  -0.124   2.539  1.00  0.00     0.045 A   
ATOM     3   C11 UNL     1       0.401   0.362   2.278  1.00  0.00     0.127 A   
ATOM     4   N3  UNL     1      -0.499  -0.672   2.325  1.00  0.00    -0.132 NA  
ATOM     5   N4  UNL     1       0.163  -1.781   2.606  1.00  0.00    -0.076 NA  
ATOM     6   H11 UNL     1       2.646   0.326   2.563  1.00  0.00     0.083 HD  
ENDROOT
BRANCH   1   7
ATOM     7   C9  UNL     1       2.459  -2.497   2.913  1.00  0.00     0.139 C   
BRANCH   7   8
ATOM     8   C8  UNL     1       2.780  -3.277   1.637  1.00  0.00     0.059 C   
BRANCH   8   9
ATOM     9   C7  UNL     1       3.473  -2.441   0.582  1.00  0.00    -0.016 A   
ATOM     10  C2  UNL     1       2.783  -1.908  -0.521  1.00  0.00     0.081 A   
ATOM     11  C3  UNL     1       3.433  -1.105  -1.457  1.00  0.00     0.073 A   
ATOM     12  C4  UNL     1       4.790  -0.853  -1.307  1.00  0.00     0.125 A   
ATOM     13  C6  UNL     1       4.847  -2.174   0.706  1.00  0.00     0.009 A   
ATOM     14  C5  UNL     1       5.503  -1.382  -0.238  1.00  0.00     0.040 A   
ATOM     15  F1  UNL     1       5.416  -0.078  -2.201  1.00  0.00    -0.207 F   
BRANCH  10  16
ATOM     16  O1  UNL     1       1.432  -2.104  -0.647  1.00  0.00    -0.349 OA  
ATOM     17  C1  UNL     1       1.170  -3.122  -1.620  1.00  0.00     0.203 C   
ENDBRANCH  10  16
ENDBRANCH   8   9
ENDBRANCH   7   8
ENDBRANCH   1   7
BRANCH   3  18
ATOM     18  C12 UNL     1      -0.063   1.717   1.842  1.00  0.00     0.120 C   
BRANCH  18  19
ATOM     19  N2  UNL     1      -1.009   1.527   0.679  1.00  0.00     0.250 N   
ATOM     20  H13 UNL     1      -1.620   0.735   0.935  1.00  0.00     0.199 HD  
ATOM     21  H14 UNL     1      -1.627   2.327   0.527  1.00  0.00     0.199 HD  
BRANCH  19  22
ATOM     22  C13 UNL     1      -0.347   1.168  -0.607  1.00  0.00     0.164 C   
BRANCH  22  23
ATOM     23  C14 UNL     1      -1.361   0.755  -1.635  1.00  0.00    -0.002 A   
ATOM     24  C15 UNL     1      -1.835   1.679  -2.594  1.00  0.00     0.012 A   
ATOM     25  C19 UNL     1      -1.873  -0.555  -1.619  1.00  0.00     0.045 A   
ATOM     26  C16 UNL     1      -2.797   1.301  -3.538  1.00  0.00     0.037 A   
ATOM     27  C18 UNL     1      -2.819  -0.894  -2.562  1.00  0.00     0.109 A   
ATOM     28  C17 UNL     1      -3.268   0.007  -3.495  1.00  0.00     0.108 A   
ATOM     29  O2  UNL     1      -3.409  -2.112  -2.689  1.00  0.00    -0.316 OA  
ATOM     30  O3  UNL     1      -4.196  -0.529  -4.330  1.00  0.00    -0.316 OA  
ATOM     31  C20 UNL     1      -4.277  -1.878  -3.822  1.00  0.00     0.337 C   
ENDBRANCH  22  23
ENDBRANCH  19  22
ENDBRANCH  18  19
BRANCH  18  32
ATOM     32  C21 UNL     1      -0.736   2.568   2.972  1.00  0.00     0.010 C   
ATOM     33  C22 UNL     1      -2.055   1.957   3.483  1.00  0.00     0.017 C   
ATOM     34  C23 UNL     1      -1.032   3.996   2.458  1.00  0.00     0.017 C   
ATOM     35  C24 UNL     1       0.230   2.711   4.170  1.00  0.00     0.017 C   
ENDBRANCH  18  32
ENDBRANCH   3  18
TORSDOF 9
