REMARK SMILES CCc1ccsc1[C@H](CO)n1cc([C@@H]([NH2+]Cc2ccc3c(c2)OCO3)C(C)(C)C)nn1
REMARK SMILES IDX 11 1 12 2 13 3 30 4 31 5 8 7 7 8 3 9 4 10 5 11 6 12 2 13
REMARK SMILES IDX 1 14 9 15 10 16 14 18 15 19 16 22 17 23 18 24 22 25 19 26
REMARK SMILES IDX 21 27 20 28 23 29 25 30 24 31 26 32 27 33 28 34 29 35
REMARK H PARENT 12 6 10 17 15 20 15 21
ROOT
ATOM     1   N1  UNL     1      -0.318   2.519   0.576  1.00  0.00    -0.202 N   
ATOM     2   C9  UNL     1      -0.552   1.220   0.947  1.00  0.00     0.046 A   
ATOM     3   C10 UNL     1       0.692   0.735   1.281  1.00  0.00     0.127 A   
ATOM     4   N3  UNL     1       1.623   1.724   1.109  1.00  0.00    -0.132 NA  
ATOM     5   N4  UNL     1       0.998   2.807   0.682  1.00  0.00    -0.075 NA  
ATOM     6   H12 UNL     1      -1.540   0.781   0.925  1.00  0.00     0.083 HD  
ENDROOT
BRANCH   1   7
ATOM     7   C7  UNL     1      -1.291   3.493   0.075  1.00  0.00     0.162 C   
BRANCH   7   8
ATOM     8   C6  UNL     1      -1.204   3.613  -1.439  1.00  0.00     0.017 A   
ATOM     9   C3  UNL     1      -2.120   3.192  -2.401  1.00  0.00    -0.036 A   
ATOM     10  C4  UNL     1      -1.657   3.497  -3.727  1.00  0.00     0.012 A   
ATOM     11  C5  UNL     1      -0.442   4.136  -3.737  1.00  0.00     0.046 A   
ATOM     12  S1  UNL     1       0.159   4.377  -2.166  1.00  0.00    -0.100 S   
BRANCH   9  13
ATOM     13  C2  UNL     1      -3.443   2.518  -2.147  1.00  0.00     0.033 C   
ATOM     14  C1  UNL     1      -3.322   1.003  -2.106  1.00  0.00     0.009 C   
ENDBRANCH   9  13
ENDBRANCH   7   8
BRANCH   7  15
ATOM     15  C8  UNL     1      -1.208   4.842   0.806  1.00  0.00     0.186 C   
BRANCH  15  16
ATOM     16  O1  UNL     1      -1.752   4.715   2.123  1.00  0.00    -0.394 OA  
ATOM     17  H11 UNL     1      -1.693   5.594   2.543  1.00  0.00     0.210 HD  
ENDBRANCH  15  16
ENDBRANCH   7  15
ENDBRANCH   1   7
BRANCH   3  18
ATOM     18  C11 UNL     1       1.138  -0.640   1.671  1.00  0.00     0.120 C   
BRANCH  18  19
ATOM     19  N2  UNL     1       2.426  -0.976   0.940  1.00  0.00     0.250 N   
ATOM     20  H14 UNL     1       3.100  -0.238   1.183  1.00  0.00     0.199 HD  
ATOM     21  H15 UNL     1       2.807  -1.865   1.268  1.00  0.00     0.199 HD  
BRANCH  19  22
ATOM     22  C12 UNL     1       2.357  -1.013  -0.556  1.00  0.00     0.164 C   
BRANCH  22  23
ATOM     23  C13 UNL     1       1.341  -1.985  -1.086  1.00  0.00    -0.002 A   
ATOM     24  C14 UNL     1       0.179  -1.510  -1.743  1.00  0.00     0.012 A   
ATOM     25  C18 UNL     1       1.516  -3.368  -0.905  1.00  0.00     0.045 A   
ATOM     26  C15 UNL     1      -0.802  -2.397  -2.200  1.00  0.00     0.037 A   
ATOM     27  C17 UNL     1       0.528  -4.213  -1.366  1.00  0.00     0.109 A   
ATOM     28  C16 UNL     1      -0.599  -3.743  -1.992  1.00  0.00     0.108 A   
ATOM     29  O2  UNL     1       0.536  -5.568  -1.260  1.00  0.00    -0.316 OA  
ATOM     30  O3  UNL     1      -1.443  -4.741  -2.359  1.00  0.00    -0.316 OA  
ATOM     31  C19 UNL     1      -0.707  -5.903  -1.918  1.00  0.00     0.337 C   
ENDBRANCH  22  23
ENDBRANCH  19  22
ENDBRANCH  18  19
BRANCH  18  32
ATOM     32  C20 UNL     1       1.316  -0.842   3.218  1.00  0.00     0.010 C   
ATOM     33  C21 UNL     1       2.411   0.058   3.822  1.00  0.00     0.017 C   
ATOM     34  C22 UNL     1      -0.015  -0.538   3.943  1.00  0.00     0.017 C   
ATOM     35  C23 UNL     1       1.675  -2.313   3.531  1.00  0.00     0.017 C   
ENDBRANCH  18  32
ENDBRANCH   3  18
TORSDOF 10
