REMARK SMILES CCc1ccsc1[C@@H](CO)n1cc([C@@H]([NH2+]Cc2ccc3c(c2)OCO3)C(C)(C)C)nn1
REMARK SMILES IDX 11 1 12 2 13 3 30 4 31 5 8 7 7 8 3 9 4 10 5 11 6 12 2 13
REMARK SMILES IDX 1 14 9 15 10 16 14 18 15 19 16 22 17 23 18 24 22 25 19 26
REMARK SMILES IDX 21 27 20 28 23 29 25 30 24 31 26 32 27 33 28 34 29 35
REMARK H PARENT 12 6 10 17 15 20 15 21
ROOT
ATOM     1   N1  UNL     1      -1.241   0.278  -2.257  1.00  0.00    -0.202 N   
ATOM     2   C9  UNL     1      -0.709   1.266  -1.472  1.00  0.00     0.046 A   
ATOM     3   C10 UNL     1       0.394   0.684  -0.892  1.00  0.00     0.127 A   
ATOM     4   N3  UNL     1       0.479  -0.623  -1.302  1.00  0.00    -0.132 NA  
ATOM     5   N4  UNL     1      -0.523  -0.861  -2.133  1.00  0.00    -0.075 NA  
ATOM     6   H12 UNL     1      -1.144   2.255  -1.420  1.00  0.00     0.083 HD  
ENDROOT
BRANCH   1   7
ATOM     7   C7  UNL     1      -2.422   0.315  -3.116  1.00  0.00     0.162 C   
BRANCH   7   8
ATOM     8   C6  UNL     1      -3.669   0.639  -2.298  1.00  0.00     0.017 A   
ATOM     9   C3  UNL     1      -4.448  -0.236  -1.541  1.00  0.00    -0.036 A   
ATOM     10  C4  UNL     1      -5.553   0.446  -0.926  1.00  0.00     0.012 A   
ATOM     11  C5  UNL     1      -5.575   1.789  -1.207  1.00  0.00     0.046 A   
ATOM     12  S1  UNL     1      -4.277   2.247  -2.205  1.00  0.00    -0.100 S   
BRANCH   9  13
ATOM     13  C2  UNL     1      -4.216  -1.714  -1.358  1.00  0.00     0.033 C   
ATOM     14  C1  UNL     1      -3.504  -2.031  -0.051  1.00  0.00     0.009 C   
ENDBRANCH   9  13
ENDBRANCH   7   8
BRANCH   7  15
ATOM     15  C8  UNL     1      -2.191   1.151  -4.390  1.00  0.00     0.186 C   
BRANCH  15  16
ATOM     16  O1  UNL     1      -1.731   2.478  -4.127  1.00  0.00    -0.394 OA  
ATOM     17  H11 UNL     1      -1.739   2.955  -4.978  1.00  0.00     0.210 HD  
ENDBRANCH  15  16
ENDBRANCH   7  15
ENDBRANCH   1   7
BRANCH   3  18
ATOM     18  C11 UNL     1       1.378   1.216   0.104  1.00  0.00     0.120 C   
BRANCH  18  19
ATOM     19  N2  UNL     1       1.756   0.100   1.050  1.00  0.00     0.250 N   
ATOM     20  H14 UNL     1       1.954  -0.726   0.465  1.00  0.00     0.199 HD  
ATOM     21  H15 UNL     1       2.614   0.298   1.568  1.00  0.00     0.199 HD  
BRANCH  19  22
ATOM     22  C12 UNL     1       0.695  -0.296   2.020  1.00  0.00     0.164 C   
BRANCH  22  23
ATOM     23  C13 UNL     1       1.159  -1.456   2.855  1.00  0.00    -0.002 A   
ATOM     24  C14 UNL     1       1.742  -1.238   4.126  1.00  0.00     0.012 A   
ATOM     25  C18 UNL     1       1.067  -2.764   2.349  1.00  0.00     0.045 A   
ATOM     26  C15 UNL     1       2.218  -2.309   4.890  1.00  0.00     0.037 A   
ATOM     27  C17 UNL     1       1.548  -3.797   3.127  1.00  0.00     0.109 A   
ATOM     28  C16 UNL     1       2.105  -3.577   4.362  1.00  0.00     0.108 A   
ATOM     29  O2  UNL     1       1.539  -5.113   2.788  1.00  0.00    -0.316 OA  
ATOM     30  O3  UNL     1       2.514  -4.726   4.958  1.00  0.00    -0.316 OA  
ATOM     31  C19 UNL     1       2.127  -5.704   3.968  1.00  0.00     0.337 C   
ENDBRANCH  22  23
ENDBRANCH  19  22
ENDBRANCH  18  19
BRANCH  18  32
ATOM     32  C20 UNL     1       2.663   1.849  -0.535  1.00  0.00     0.010 C   
ATOM     33  C21 UNL     1       3.545   2.496   0.559  1.00  0.00     0.017 C   
ATOM     34  C22 UNL     1       3.518   0.818  -1.298  1.00  0.00     0.017 C   
ATOM     35  C23 UNL     1       2.271   2.977  -1.517  1.00  0.00     0.017 C   
ENDBRANCH  18  32
ENDBRANCH   3  18
TORSDOF 10
