REMARK SMILES c1cc2c(o1)CCN[C@H]2Cn1cc([C@@H]([NH2+]Cc2ccc3c(c2)OCO3)C2CCCCC2)nn1
REMARK SMILES IDX 11 1 12 2 13 3 32 4 33 5 10 7 9 8 1 9 2 10 5 11 3 12 4 13
REMARK SMILES IDX 6 14 8 15 7 16 14 18 15 19 16 22 17 23 18 24 22 25 19 26
REMARK SMILES IDX 21 27 20 28 23 29 25 30 24 31 26 32 27 33 31 34 28 35 30 36
REMARK SMILES IDX 29 37
REMARK H PARENT 12 6 8 17 15 20 15 21
ROOT
ATOM     1   N2  UNL     1      -1.544  -1.939  -0.499  1.00  0.00    -0.210 N   
ATOM     2   C9  UNL     1      -0.836  -0.807  -0.801  1.00  0.00     0.045 A   
ATOM     3   C10 UNL     1      -0.058  -0.593   0.317  1.00  0.00     0.127 A   
ATOM     4   N4  UNL     1      -0.338  -1.558   1.250  1.00  0.00    -0.132 NA  
ATOM     5   N5  UNL     1      -1.271  -2.351   0.753  1.00  0.00    -0.076 NA  
ATOM     6   H11 UNL     1      -0.941  -0.288  -1.744  1.00  0.00     0.083 HD  
ENDROOT
BRANCH   1   7
ATOM     7   C8  UNL     1      -2.547  -2.611  -1.302  1.00  0.00     0.157 C   
BRANCH   7   8
ATOM     8   C7  UNL     1      -1.972  -3.302  -2.552  1.00  0.00     0.106 C   
ATOM     9   C1  UNL     1       0.011  -6.292  -1.524  1.00  0.00     0.136 A   
ATOM     10  C2  UNL     1      -0.307  -4.972  -1.274  1.00  0.00     0.033 A   
ATOM     11  O1  UNL     1      -0.669  -6.752  -2.608  1.00  0.00    -0.322 OA  
ATOM     12  C3  UNL     1      -1.261  -4.593  -2.254  1.00  0.00    -0.001 A   
ATOM     13  C4  UNL     1      -1.425  -5.718  -3.033  1.00  0.00     0.065 A   
ATOM     14  C5  UNL     1      -2.307  -5.860  -4.206  1.00  0.00     0.077 C   
ATOM     15  N1  UNL     1      -3.098  -3.570  -3.498  1.00  0.00    -0.308 NA  
ATOM     16  C6  UNL     1      -2.719  -4.437  -4.639  1.00  0.00     0.088 C   
ATOM     17  H7  UNL     1      -3.451  -2.688  -3.869  1.00  0.00     0.123 HD  
ENDBRANCH   7   8
ENDBRANCH   1   7
BRANCH   3  18
ATOM     18  C11 UNL     1       0.940   0.474   0.641  1.00  0.00     0.117 C   
BRANCH  18  19
ATOM     19  N3  UNL     1       1.073   0.629   2.139  1.00  0.00     0.249 N   
ATOM     20  H13 UNL     1       1.955   1.083   2.389  1.00  0.00     0.199 HD  
ATOM     21  H14 UNL     1       1.107  -0.327   2.522  1.00  0.00     0.199 HD  
BRANCH  19  22
ATOM     22  C12 UNL     1      -0.049   1.334   2.828  1.00  0.00     0.164 C   
BRANCH  22  23
ATOM     23  C13 UNL     1      -0.132   2.793   2.468  1.00  0.00    -0.002 A   
ATOM     24  C14 UNL     1      -1.231   3.281   1.721  1.00  0.00     0.012 A   
ATOM     25  C18 UNL     1       0.891   3.679   2.851  1.00  0.00     0.045 A   
ATOM     26  C15 UNL     1      -1.310   4.628   1.351  1.00  0.00     0.037 A   
ATOM     27  C17 UNL     1       0.784   5.000   2.467  1.00  0.00     0.109 A   
ATOM     28  C16 UNL     1      -0.284   5.462   1.738  1.00  0.00     0.108 A   
ATOM     29  O2  UNL     1       1.685   5.978   2.746  1.00  0.00    -0.316 OA  
ATOM     30  O3  UNL     1      -0.193   6.790   1.470  1.00  0.00    -0.316 OA  
ATOM     31  C19 UNL     1       1.042   7.124   2.140  1.00  0.00     0.337 C   
ENDBRANCH  22  23
ENDBRANCH  19  22
ENDBRANCH  18  19
BRANCH  18  32
ATOM     32  C20 UNL     1       2.327   0.188   0.004  1.00  0.00     0.043 C   
ATOM     33  C21 UNL     1       3.062  -1.023   0.613  1.00  0.00     0.010 C   
ATOM     34  C25 UNL     1       3.235   1.434   0.037  1.00  0.00     0.010 C   
ATOM     35  C22 UNL     1       4.401  -1.275  -0.079  1.00  0.00     0.001 C   
ATOM     36  C24 UNL     1       4.572   1.175  -0.654  1.00  0.00     0.001 C   
ATOM     37  C23 UNL     1       5.288  -0.034  -0.061  1.00  0.00     0.000 C   
ENDBRANCH  18  32
ENDBRANCH   3  18
TORSDOF 7
