REMARK SMILES c1cc2c(o1)CCN[C@@H]2Cn1cc([C@@H]([NH2+]Cc2ccc3c(c2)OCO3)C2CCCCC2)nn1
REMARK SMILES IDX 11 1 12 2 13 3 32 4 33 5 10 7 9 8 1 9 2 10 5 11 3 12 4 13
REMARK SMILES IDX 6 14 8 15 7 16 14 18 15 19 16 22 17 23 18 24 22 25 19 26
REMARK SMILES IDX 21 27 20 28 23 29 25 30 24 31 26 32 27 33 31 34 28 35 30 36
REMARK SMILES IDX 29 37
REMARK H PARENT 12 6 8 17 15 20 15 21
ROOT
ATOM     1   N2  UNL     1       0.404  -0.613   2.452  1.00  0.00    -0.210 N   
ATOM     2   C9  UNL     1      -0.630  -1.052   1.672  1.00  0.00     0.045 A   
ATOM     3   C10 UNL     1      -0.003  -1.569   0.559  1.00  0.00     0.127 A   
ATOM     4   N4  UNL     1       1.356  -1.458   0.713  1.00  0.00    -0.132 NA  
ATOM     5   N5  UNL     1       1.592  -0.888   1.882  1.00  0.00    -0.076 NA  
ATOM     6   H11 UNL     1      -1.667  -0.907   1.947  1.00  0.00     0.083 HD  
ENDROOT
BRANCH   1   7
ATOM     7   C8  UNL     1       0.347   0.135   3.692  1.00  0.00     0.157 C   
BRANCH   7   8
ATOM     8   C7  UNL     1       0.664   1.623   3.469  1.00  0.00     0.106 C   
ATOM     9   C1  UNL     1       1.362   3.183   6.780  1.00  0.00     0.136 A   
ATOM     10  C2  UNL     1       1.467   2.056   5.987  1.00  0.00     0.033 A   
ATOM     11  O1  UNL     1       0.737   4.189   6.109  1.00  0.00    -0.322 OA  
ATOM     12  C3  UNL     1       0.852   2.382   4.751  1.00  0.00    -0.001 A   
ATOM     13  C4  UNL     1       0.455   3.695   4.885  1.00  0.00     0.065 A   
ATOM     14  C5  UNL     1      -0.225   4.524   3.870  1.00  0.00     0.077 C   
ATOM     15  N1  UNL     1      -0.439   2.285   2.688  1.00  0.00    -0.308 NA  
ATOM     16  C6  UNL     1      -0.181   3.745   2.531  1.00  0.00     0.088 C   
ATOM     17  H7  UNL     1      -1.301   2.195   3.233  1.00  0.00     0.123 HD  
ENDBRANCH   7   8
ENDBRANCH   1   7
BRANCH   3  18
ATOM     18  C11 UNL     1      -0.541  -2.073  -0.743  1.00  0.00     0.117 C   
BRANCH  18  19
ATOM     19  N3  UNL     1       0.310  -1.522  -1.859  1.00  0.00     0.249 N   
ATOM     20  H13 UNL     1       1.278  -1.524  -1.496  1.00  0.00     0.199 HD  
ATOM     21  H14 UNL     1       0.324  -2.121  -2.689  1.00  0.00     0.199 HD  
BRANCH  19  22
ATOM     22  C12 UNL     1      -0.020  -0.120  -2.247  1.00  0.00     0.164 C   
BRANCH  22  23
ATOM     23  C13 UNL     1       1.200   0.645  -2.676  1.00  0.00    -0.002 A   
ATOM     24  C14 UNL     1       1.996   1.296  -1.697  1.00  0.00     0.012 A   
ATOM     25  C18 UNL     1       1.573   0.710  -4.030  1.00  0.00     0.045 A   
ATOM     26  C15 UNL     1       3.133   2.026  -2.063  1.00  0.00     0.037 A   
ATOM     27  C17 UNL     1       2.700   1.442  -4.356  1.00  0.00     0.109 A   
ATOM     28  C16 UNL     1       3.454   2.084  -3.402  1.00  0.00     0.108 A   
ATOM     29  O2  UNL     1       3.191   1.619  -5.612  1.00  0.00    -0.316 OA  
ATOM     30  O3  UNL     1       4.510   2.752  -3.937  1.00  0.00    -0.316 OA  
ATOM     31  C19 UNL     1       4.329   2.473  -5.343  1.00  0.00     0.337 C   
ENDBRANCH  22  23
ENDBRANCH  19  22
ENDBRANCH  18  19
BRANCH  18  32
ATOM     32  C20 UNL     1      -0.621  -3.618  -0.806  1.00  0.00     0.043 C   
ATOM     33  C21 UNL     1      -1.494  -4.085  -1.987  1.00  0.00     0.010 C   
ATOM     34  C25 UNL     1       0.745  -4.331  -0.846  1.00  0.00     0.010 C   
ATOM     35  C22 UNL     1      -1.661  -5.605  -1.999  1.00  0.00     0.001 C   
ATOM     36  C24 UNL     1       0.579  -5.851  -0.861  1.00  0.00     0.001 C   
ATOM     37  C23 UNL     1      -0.313  -6.317  -2.007  1.00  0.00     0.000 C   
ENDBRANCH  18  32
ENDBRANCH   3  18
TORSDOF 7
