REMARK SMILES CC(C)(C)[C@H]([NH2+]Cc1ccc2c(c1)OCO2)c1cn([C@H](CO)c2ccccn2)nn1
REMARK SMILES IDX 17 1 18 2 19 3 29 4 30 5 5 7 2 8 1 9 3 10 4 11 6 12 7 15
REMARK SMILES IDX 8 16 9 17 13 18 10 19 12 20 11 21 14 22 16 23 15 24 20 25
REMARK SMILES IDX 21 26 22 27 23 29 24 30 28 31 25 32 27 33 26 34
REMARK H PARENT 18 6 6 13 6 14 22 28
ROOT
ATOM     1   C14 UNL     1       1.470   0.676  -0.405  1.00  0.00     0.127 A   
ATOM     2   C15 UNL     1       1.248   1.728  -1.262  1.00  0.00     0.046 A   
ATOM     3   N2  UNL     1       1.159   1.147  -2.499  1.00  0.00    -0.201 N   
ATOM     4   N4  UNL     1       1.256  -0.197  -2.394  1.00  0.00    -0.075 NA  
ATOM     5   N5  UNL     1       1.451  -0.495  -1.119  1.00  0.00    -0.132 NA  
ATOM     6   H20 UNL     1       1.159   2.797  -1.120  1.00  0.00     0.083 HD  
ENDROOT
BRANCH   1   7
ATOM     7   C5  UNL     1       1.619   0.639   1.085  1.00  0.00     0.120 C   
BRANCH   7   8
ATOM     8   C2  UNL     1       3.106   0.618   1.584  1.00  0.00     0.010 C   
ATOM     9   C1  UNL     1       3.154   0.736   3.126  1.00  0.00     0.017 C   
ATOM     10  C3  UNL     1       3.876   1.833   1.017  1.00  0.00     0.017 C   
ATOM     11  C4  UNL     1       3.856  -0.666   1.175  1.00  0.00     0.017 C   
ENDBRANCH   7   8
BRANCH   7  12
ATOM     12  N1  UNL     1       0.865  -0.559   1.616  1.00  0.00     0.250 N   
ATOM     13  H11 UNL     1       1.149  -0.809   2.566  1.00  0.00     0.199 HD  
ATOM     14  H12 UNL     1       1.122  -1.360   1.016  1.00  0.00     0.199 HD  
BRANCH  12  15
ATOM     15  C6  UNL     1      -0.622  -0.434   1.576  1.00  0.00     0.164 C   
BRANCH  15  16
ATOM     16  C7  UNL     1      -1.274  -1.685   2.097  1.00  0.00    -0.002 A   
ATOM     17  C8  UNL     1      -1.652  -1.783   3.457  1.00  0.00     0.012 A   
ATOM     18  C12 UNL     1      -1.474  -2.781   1.240  1.00  0.00     0.045 A   
ATOM     19  C9  UNL     1      -2.236  -2.951   3.957  1.00  0.00     0.037 A   
ATOM     20  C11 UNL     1      -2.058  -3.915   1.765  1.00  0.00     0.109 A   
ATOM     21  C10 UNL     1      -2.428  -3.998   3.084  1.00  0.00     0.108 A   
ATOM     22  O1  UNL     1      -2.331  -5.055   1.077  1.00  0.00    -0.316 OA  
ATOM     23  O2  UNL     1      -2.981  -5.202   3.393  1.00  0.00    -0.316 OA  
ATOM     24  C13 UNL     1      -2.967  -5.851   2.103  1.00  0.00     0.337 C   
ENDBRANCH  15  16
ENDBRANCH  12  15
ENDBRANCH   7  12
ENDBRANCH   1   7
BRANCH   3  25
ATOM     25  C16 UNL     1       0.932   1.765  -3.800  1.00  0.00     0.174 C   
BRANCH  25  26
ATOM     26  C17 UNL     1       1.968   2.856  -4.133  1.00  0.00     0.187 C   
BRANCH  26  27
ATOM     27  O3  UNL     1       1.918   3.985  -3.257  1.00  0.00    -0.394 OA  
ATOM     28  H24 UNL     1       1.006   4.342  -3.330  1.00  0.00     0.210 HD  
ENDBRANCH  26  27
ENDBRANCH  25  26
BRANCH  25  29
ATOM     29  C18 UNL     1      -0.506   2.247  -3.894  1.00  0.00     0.065 A   
ATOM     30  C19 UNL     1      -1.505   1.383  -4.350  1.00  0.00     0.026 A   
ATOM     31  N3  UNL     1      -0.780   3.518  -3.490  1.00  0.00    -0.259 NA  
ATOM     32  C20 UNL     1      -2.818   1.844  -4.417  1.00  0.00     0.004 A   
ATOM     33  C22 UNL     1      -2.065   3.938  -3.573  1.00  0.00     0.111 A   
ATOM     34  C21 UNL     1      -3.106   3.145  -4.024  1.00  0.00     0.020 A   
ENDBRANCH  25  29
ENDBRANCH   3  25
TORSDOF 9
