REMARK SMILES CC(C)(C)[C@H]([NH2+]Cc1ccc2c(c1)OCO2)c1cn([C@@H](CO)c2ccccn2)nn1
REMARK SMILES IDX 17 1 18 2 19 3 29 4 30 5 5 7 2 8 1 9 3 10 4 11 6 12 7 15
REMARK SMILES IDX 8 16 9 17 13 18 10 19 12 20 11 21 14 22 16 23 15 24 20 25
REMARK SMILES IDX 21 26 22 27 23 29 24 30 28 31 25 32 27 33 26 34
REMARK H PARENT 18 6 6 13 6 14 22 28
ROOT
ATOM     1   C14 UNL     1       0.436  -0.876  -0.040  1.00  0.00     0.127 A   
ATOM     2   C15 UNL     1       0.188  -1.865  -0.965  1.00  0.00     0.046 A   
ATOM     3   N2  UNL     1      -0.950  -2.478  -0.506  1.00  0.00    -0.201 N   
ATOM     4   N4  UNL     1      -1.385  -1.882   0.625  1.00  0.00    -0.075 NA  
ATOM     5   N5  UNL     1      -0.544  -0.903   0.921  1.00  0.00    -0.132 NA  
ATOM     6   H20 UNL     1       0.677  -2.174  -1.880  1.00  0.00     0.083 HD  
ENDROOT
BRANCH   1   7
ATOM     7   C5  UNL     1       1.479   0.202   0.002  1.00  0.00     0.120 C   
BRANCH   7   8
ATOM     8   C2  UNL     1       2.739  -0.157   0.860  1.00  0.00     0.010 C   
ATOM     9   C1  UNL     1       2.410  -0.355   2.353  1.00  0.00     0.017 C   
ATOM     10  C3  UNL     1       3.804   0.958   0.739  1.00  0.00     0.017 C   
ATOM     11  C4  UNL     1       3.388  -1.456   0.329  1.00  0.00     0.017 C   
ENDBRANCH   7   8
BRANCH   7  12
ATOM     12  N1  UNL     1       0.823   1.462   0.519  1.00  0.00     0.250 N   
ATOM     13  H11 UNL     1       0.208   1.168   1.295  1.00  0.00     0.199 HD  
ATOM     14  H12 UNL     1       1.487   2.126   0.923  1.00  0.00     0.199 HD  
BRANCH  12  15
ATOM     15  C6  UNL     1      -0.032   2.175  -0.471  1.00  0.00     0.164 C   
BRANCH  15  16
ATOM     16  C7  UNL     1      -0.852   3.237   0.208  1.00  0.00    -0.002 A   
ATOM     17  C8  UNL     1      -2.113   2.908   0.763  1.00  0.00     0.012 A   
ATOM     18  C12 UNL     1      -0.355   4.544   0.341  1.00  0.00     0.045 A   
ATOM     19  C9  UNL     1      -2.880   3.872   1.425  1.00  0.00     0.037 A   
ATOM     20  C11 UNL     1      -1.138   5.470   1.001  1.00  0.00     0.109 A   
ATOM     21  C10 UNL     1      -2.366   5.145   1.525  1.00  0.00     0.108 A   
ATOM     22  O1  UNL     1      -0.810   6.771   1.214  1.00  0.00    -0.316 OA  
ATOM     23  O2  UNL     1      -2.968   6.204   2.129  1.00  0.00    -0.316 OA  
ATOM     24  C13 UNL     1      -1.996   7.244   1.895  1.00  0.00     0.337 C   
ENDBRANCH  15  16
ENDBRANCH  12  15
ENDBRANCH   7  12
ENDBRANCH   1   7
BRANCH   3  25
ATOM     25  C16 UNL     1      -1.709  -3.578  -1.093  1.00  0.00     0.174 C   
BRANCH  25  26
ATOM     26  C17 UNL     1      -2.457  -3.132  -2.364  1.00  0.00     0.187 C   
BRANCH  26  27
ATOM     27  O3  UNL     1      -1.583  -2.714  -3.418  1.00  0.00    -0.394 OA  
ATOM     28  H24 UNL     1      -1.014  -3.490  -3.609  1.00  0.00     0.210 HD  
ENDBRANCH  26  27
ENDBRANCH  25  26
BRANCH  25  29
ATOM     29  C18 UNL     1      -0.810  -4.783  -1.306  1.00  0.00     0.065 A   
ATOM     30  C19 UNL     1      -0.598  -5.690  -0.265  1.00  0.00     0.026 A   
ATOM     31  N3  UNL     1      -0.200  -4.915  -2.517  1.00  0.00    -0.259 NA  
ATOM     32  C20 UNL     1       0.248  -6.773  -0.476  1.00  0.00     0.004 A   
ATOM     33  C22 UNL     1       0.614  -5.983  -2.692  1.00  0.00     0.111 A   
ATOM     34  C21 UNL     1       0.867  -6.926  -1.713  1.00  0.00     0.020 A   
ENDBRANCH  25  29
ENDBRANCH   3  25
TORSDOF 9
