REMARK SMILES c1ccc2[nH]c(Cn3cc([C@@H]([NH2+]Cc4ccc5c(c4)OCO5)C4CCCC4)nn3)nc2c1
REMARK SMILES IDX 8 1 9 2 10 3 28 4 29 5 7 7 6 8 1 9 2 10 32 11 3 12 31 13
REMARK SMILES IDX 4 14 30 15 5 16 11 18 12 19 13 22 14 23 15 24 19 25 16 26
REMARK SMILES IDX 18 27 17 28 20 29 22 30 21 31 23 32 24 33 27 34 25 35 26 36
REMARK H PARENT 9 6 5 17 12 20 12 21
ROOT
ATOM     1   N2  UNL     1      -2.035  -1.760   1.721  1.00  0.00    -0.205 N   
ATOM     2   C7  UNL     1      -1.036  -0.875   2.026  1.00  0.00     0.046 A   
ATOM     3   C8  UNL     1      -0.973  -0.054   0.925  1.00  0.00     0.127 A   
ATOM     4   N4  UNL     1      -1.935  -0.434   0.022  1.00  0.00    -0.132 NA  
ATOM     5   N5  UNL     1      -2.581  -1.476   0.521  1.00  0.00    -0.076 NA  
ATOM     6   H7  UNL     1      -0.459  -0.955   2.937  1.00  0.00     0.083 HD  
ENDROOT
BRANCH   1   7
ATOM     7   C6  UNL     1      -2.477  -2.911   2.486  1.00  0.00     0.206 C   
BRANCH   7   8
ATOM     8   C5  UNL     1      -1.573  -4.060   2.212  1.00  0.00     0.118 A   
ATOM     9   C1  UNL     1       1.546  -7.257   1.602  1.00  0.00     0.002 A   
ATOM     10  C2  UNL     1       0.468  -7.929   1.020  1.00  0.00     0.002 A   
ATOM     11  C24 UNL     1       1.388  -5.970   2.131  1.00  0.00     0.030 A   
ATOM     12  C3  UNL     1      -0.801  -7.343   0.946  1.00  0.00     0.026 A   
ATOM     13  C23 UNL     1       0.124  -5.368   2.066  1.00  0.00     0.086 A   
ATOM     14  C4  UNL     1      -0.930  -6.060   1.482  1.00  0.00     0.057 A   
ATOM     15  N6  UNL     1      -0.288  -4.132   2.505  1.00  0.00    -0.234 NA  
ATOM     16  N1  UNL     1      -1.999  -5.208   1.587  1.00  0.00    -0.300 N   
ATOM     17  H4  UNL     1      -2.936  -5.402   1.260  1.00  0.00     0.154 HD  
ENDBRANCH   7   8
ENDBRANCH   1   7
BRANCH   3  18
ATOM     18  C9  UNL     1      -0.024   1.044   0.575  1.00  0.00     0.117 C   
BRANCH  18  19
ATOM     19  N3  UNL     1       0.276   1.004  -0.899  1.00  0.00     0.249 N   
ATOM     20  H9  UNL     1       0.625   1.898  -1.252  1.00  0.00     0.199 HD  
ATOM     21  H10 UNL     1      -0.621   0.836  -1.378  1.00  0.00     0.199 HD  
BRANCH  19  22
ATOM     22  C10 UNL     1       1.198  -0.086  -1.326  1.00  0.00     0.164 C   
BRANCH  22  23
ATOM     23  C11 UNL     1       1.334  -0.093  -2.822  1.00  0.00    -0.002 A   
ATOM     24  C12 UNL     1       0.395  -0.794  -3.616  1.00  0.00     0.012 A   
ATOM     25  C16 UNL     1       2.353   0.648  -3.445  1.00  0.00     0.045 A   
ATOM     26  C13 UNL     1       0.472  -0.766  -5.013  1.00  0.00     0.037 A   
ATOM     27  C15 UNL     1       2.400   0.654  -4.824  1.00  0.00     0.109 A   
ATOM     28  C14 UNL     1       1.485  -0.031  -5.586  1.00  0.00     0.108 A   
ATOM     29  O1  UNL     1       3.315   1.315  -5.579  1.00  0.00    -0.316 OA  
ATOM     30  O2  UNL     1       1.707   0.115  -6.919  1.00  0.00    -0.316 OA  
ATOM     31  C17 UNL     1       2.879   0.959  -6.913  1.00  0.00     0.337 C   
ENDBRANCH  22  23
ENDBRANCH  19  22
ENDBRANCH  18  19
BRANCH  18  32
ATOM     32  C18 UNL     1      -0.569   2.427   0.982  1.00  0.00     0.043 C   
ATOM     33  C19 UNL     1      -1.777   2.951   0.179  1.00  0.00     0.010 C   
ATOM     34  C22 UNL     1       0.475   3.552   0.919  1.00  0.00     0.010 C   
ATOM     35  C20 UNL     1      -1.444   4.393  -0.200  1.00  0.00     0.001 C   
ATOM     36  C21 UNL     1      -0.365   4.812   0.783  1.00  0.00     0.001 C   
ENDBRANCH  18  32
ENDBRANCH   3  18
TORSDOF 7
