REMARK SMILES CC(C)[C@H]([NH2+]Cc1ccc2c(c1)OCO2)c1cn([C@H](CO)c2cc(F)cc(F)c2)nn1
REMARK SMILES IDX 16 1 17 2 18 3 30 4 31 5 4 7 2 8 1 9 3 10 5 11 6 14 7 15
REMARK SMILES IDX 8 16 12 17 9 18 11 19 10 20 13 21 15 22 14 23 19 24 20 25
REMARK SMILES IDX 21 26 22 28 23 29 29 30 24 31 27 32 26 33 25 34 28 35
REMARK H PARENT 17 6 5 12 5 13 21 27
ROOT
ATOM     1   C13 UNL     1      -0.255   0.639   0.412  1.00  0.00     0.127 A   
ATOM     2   C14 UNL     1      -1.294   1.207   1.115  1.00  0.00     0.046 A   
ATOM     3   N2  UNL     1      -1.161   0.706   2.383  1.00  0.00    -0.202 N   
ATOM     4   N3  UNL     1      -0.073  -0.090   2.464  1.00  0.00    -0.075 NA  
ATOM     5   N4  UNL     1       0.473  -0.157   1.262  1.00  0.00    -0.132 NA  
ATOM     6   H18 UNL     1      -2.113   1.857   0.839  1.00  0.00     0.083 HD  
ENDROOT
BRANCH   1   7
ATOM     7   C4  UNL     1       0.132   0.735  -1.034  1.00  0.00     0.117 C   
BRANCH   7   8
ATOM     8   C2  UNL     1      -1.044   0.389  -1.988  1.00  0.00     0.037 C   
ATOM     9   C1  UNL     1      -1.478  -1.081  -1.927  1.00  0.00     0.014 C   
ATOM     10  C3  UNL     1      -0.734   0.781  -3.439  1.00  0.00     0.014 C   
ENDBRANCH   7   8
BRANCH   7  11
ATOM     11  N1  UNL     1       1.307  -0.162  -1.324  1.00  0.00     0.249 N   
ATOM     12  H9  UNL     1       1.184  -0.999  -0.733  1.00  0.00     0.199 HD  
ATOM     13  H10 UNL     1       1.321  -0.497  -2.291  1.00  0.00     0.199 HD  
BRANCH  11  14
ATOM     14  C5  UNL     1       2.646   0.402  -0.987  1.00  0.00     0.164 C   
BRANCH  14  15
ATOM     15  C6  UNL     1       3.704  -0.650  -1.176  1.00  0.00    -0.002 A   
ATOM     16  C7  UNL     1       3.921  -1.624  -0.169  1.00  0.00     0.012 A   
ATOM     17  C11 UNL     1       4.438  -0.715  -2.373  1.00  0.00     0.045 A   
ATOM     18  C8  UNL     1       4.853  -2.652  -0.352  1.00  0.00     0.037 A   
ATOM     19  C10 UNL     1       5.350  -1.741  -2.520  1.00  0.00     0.109 A   
ATOM     20  C9  UNL     1       5.550  -2.684  -1.541  1.00  0.00     0.108 A   
ATOM     21  O1  UNL     1       6.129  -1.954  -3.612  1.00  0.00    -0.316 OA  
ATOM     22  O2  UNL     1       6.482  -3.606  -1.891  1.00  0.00    -0.316 OA  
ATOM     23  C12 UNL     1       6.867  -3.128  -3.199  1.00  0.00     0.337 C   
ENDBRANCH  14  15
ENDBRANCH  11  14
ENDBRANCH   7  11
ENDBRANCH   1   7
BRANCH   3  24
ATOM     24  C15 UNL     1      -2.032   0.887   3.549  1.00  0.00     0.155 C   
BRANCH  24  25
ATOM     25  C16 UNL     1      -3.185  -0.137   3.516  1.00  0.00     0.185 C   
BRANCH  25  26
ATOM     26  O3  UNL     1      -3.982  -0.024   2.337  1.00  0.00    -0.394 OA  
ATOM     27  H22 UNL     1      -4.724  -0.650   2.425  1.00  0.00     0.210 HD  
ENDBRANCH  25  26
ENDBRANCH  24  25
BRANCH  24  28
ATOM     28  C17 UNL     1      -2.398   2.357   3.734  1.00  0.00    -0.017 A   
ATOM     29  C18 UNL     1      -1.409   3.260   4.176  1.00  0.00     0.045 A   
ATOM     30  C22 UNL     1      -3.678   2.870   3.471  1.00  0.00     0.045 A   
ATOM     31  C19 UNL     1      -1.703   4.615   4.341  1.00  0.00     0.126 A   
ATOM     32  C21 UNL     1      -3.950   4.230   3.647  1.00  0.00     0.126 A   
ATOM     33  C20 UNL     1      -2.971   5.111   4.081  1.00  0.00     0.078 A   
ATOM     34  F1  UNL     1      -0.740   5.450   4.752  1.00  0.00    -0.207 F   
ATOM     35  F2  UNL     1      -5.180   4.687   3.380  1.00  0.00    -0.207 F   
ENDBRANCH  24  28
ENDBRANCH   3  24
TORSDOF 9
