REMARK SMILES CC(C)[C@H]([NH2+]Cc1ccc2c(c1)OCO2)c1cn([C@@H](CO)c2cc(F)cc(F)c2)nn1
REMARK SMILES IDX 16 1 17 2 18 3 30 4 31 5 4 7 2 8 1 9 3 10 5 11 6 14 7 15
REMARK SMILES IDX 8 16 12 17 9 18 11 19 10 20 13 21 15 22 14 23 19 24 20 25
REMARK SMILES IDX 21 26 22 28 23 29 29 30 24 31 27 32 26 33 25 34 28 35
REMARK H PARENT 17 6 5 12 5 13 21 27
ROOT
ATOM     1   C13 UNL     1      -1.270  -1.167  -1.073  1.00  0.00     0.127 A   
ATOM     2   C14 UNL     1      -1.851   0.079  -1.012  1.00  0.00     0.046 A   
ATOM     3   N2  UNL     1      -3.022  -0.060  -1.709  1.00  0.00    -0.202 N   
ATOM     4   N3  UNL     1      -3.173  -1.334  -2.130  1.00  0.00    -0.075 NA  
ATOM     5   N4  UNL     1      -2.106  -2.018  -1.751  1.00  0.00    -0.132 NA  
ATOM     6   H18 UNL     1      -1.555   1.019  -0.566  1.00  0.00     0.083 HD  
ENDROOT
BRANCH   1   7
ATOM     7   C4  UNL     1       0.013  -1.689  -0.500  1.00  0.00     0.117 C   
BRANCH   7   8
ATOM     8   C2  UNL     1       1.250  -1.444  -1.403  1.00  0.00     0.037 C   
ATOM     9   C1  UNL     1       1.161  -2.096  -2.787  1.00  0.00     0.014 C   
ATOM     10  C3  UNL     1       1.550   0.052  -1.557  1.00  0.00     0.014 C   
ENDBRANCH   7   8
BRANCH   7  11
ATOM     11  N1  UNL     1      -0.176  -3.166  -0.229  1.00  0.00     0.249 N   
ATOM     12  H9  UNL     1      -0.374  -3.625  -1.128  1.00  0.00     0.199 HD  
ATOM     13  H10 UNL     1      -1.066  -3.249   0.279  1.00  0.00     0.199 HD  
BRANCH  11  14
ATOM     14  C5  UNL     1       0.865  -3.908   0.525  1.00  0.00     0.164 C   
BRANCH  14  15
ATOM     15  C6  UNL     1       1.060  -3.392   1.923  1.00  0.00    -0.002 A   
ATOM     16  C7  UNL     1       0.093  -3.655   2.924  1.00  0.00     0.012 A   
ATOM     17  C11 UNL     1       2.188  -2.615   2.240  1.00  0.00     0.045 A   
ATOM     18  C8  UNL     1       0.244  -3.150   4.220  1.00  0.00     0.037 A   
ATOM     19  C10 UNL     1       2.305  -2.132   3.527  1.00  0.00     0.109 A   
ATOM     20  C9  UNL     1       1.361  -2.391   4.489  1.00  0.00     0.108 A   
ATOM     21  O1  UNL     1       3.325  -1.365   3.992  1.00  0.00    -0.316 OA  
ATOM     22  O2  UNL     1       1.668  -1.821   5.683  1.00  0.00    -0.316 OA  
ATOM     23  C12 UNL     1       2.933  -1.198   5.375  1.00  0.00     0.337 C   
ENDBRANCH  14  15
ENDBRANCH  11  14
ENDBRANCH   7  11
ENDBRANCH   1   7
BRANCH   3  24
ATOM     24  C15 UNL     1      -4.024   0.952  -2.042  1.00  0.00     0.155 C   
BRANCH  24  25
ATOM     25  C16 UNL     1      -4.902   1.296  -0.821  1.00  0.00     0.185 C   
BRANCH  25  26
ATOM     26  O3  UNL     1      -4.146   1.774   0.293  1.00  0.00    -0.394 OA  
ATOM     27  H22 UNL     1      -4.787   2.023   0.986  1.00  0.00     0.210 HD  
ENDBRANCH  25  26
ENDBRANCH  24  25
BRANCH  24  28
ATOM     28  C17 UNL     1      -3.378   2.112  -2.794  1.00  0.00    -0.017 A   
ATOM     29  C18 UNL     1      -3.014   1.931  -4.143  1.00  0.00     0.045 A   
ATOM     30  C22 UNL     1      -3.100   3.354  -2.204  1.00  0.00     0.045 A   
ATOM     31  C19 UNL     1      -2.405   2.960  -4.861  1.00  0.00     0.126 A   
ATOM     32  C21 UNL     1      -2.489   4.369  -2.944  1.00  0.00     0.126 A   
ATOM     33  C20 UNL     1      -2.138   4.184  -4.272  1.00  0.00     0.078 A   
ATOM     34  F1  UNL     1      -2.066   2.753  -6.139  1.00  0.00    -0.207 F   
ATOM     35  F2  UNL     1      -2.231   5.542  -2.352  1.00  0.00    -0.207 F   
ENDBRANCH  24  28
ENDBRANCH   3  24
TORSDOF 9
