REMARK SMILES Cc1ccc(O)c(Cn2cc([C@@H]([NH2+]Cc3ccc4c(c3)OCO4)C(C)C)nn2)c1
REMARK SMILES IDX 9 1 10 2 11 3 27 4 28 5 8 7 7 8 2 9 3 10 29 11 4 12 5 13
REMARK SMILES IDX 1 14 6 15 12 17 13 18 14 21 15 22 16 23 20 24 17 25 19 26
REMARK SMILES IDX 18 27 21 28 23 29 22 30 24 31 25 32 26 33
REMARK H PARENT 10 6 6 16 13 19 13 20
ROOT
ATOM     1   N1  UNL     1       2.028   2.224   0.766  1.00  0.00    -0.208 N   
ATOM     2   C8  UNL     1       0.858   2.154   1.474  1.00  0.00     0.046 A   
ATOM     3   C9  UNL     1       0.812   0.850   1.911  1.00  0.00     0.127 A   
ATOM     4   N3  UNL     1       1.933   0.188   1.476  1.00  0.00    -0.132 NA  
ATOM     5   N4  UNL     1       2.668   1.037   0.778  1.00  0.00    -0.076 NA  
ATOM     6   H9  UNL     1       0.198   3.003   1.574  1.00  0.00     0.083 HD  
ENDROOT
BRANCH   1   7
ATOM     7   C7  UNL     1       2.602   3.372   0.090  1.00  0.00     0.172 C   
BRANCH   7   8
ATOM     8   C6  UNL     1       2.074   3.493  -1.313  1.00  0.00     0.002 A   
ATOM     9   C2  UNL     1       2.254   2.922  -3.682  1.00  0.00    -0.051 A   
ATOM     10  C3  UNL     1       1.107   3.682  -3.941  1.00  0.00     0.006 A   
ATOM     11  C22 UNL     1       2.721   2.821  -2.364  1.00  0.00     0.011 A   
ATOM     12  C4  UNL     1       0.447   4.347  -2.906  1.00  0.00     0.034 A   
ATOM     13  C5  UNL     1       0.933   4.246  -1.603  1.00  0.00     0.076 A   
ATOM     14  C1  UNL     1       2.942   2.182  -4.793  1.00  0.00     0.044 C   
BRANCH  13  15
ATOM     15  O1  UNL     1       0.286   4.881  -0.581  1.00  0.00    -0.361 OA  
ATOM     16  H6  UNL     1      -0.330   5.529  -0.970  1.00  0.00     0.218 HD  
ENDBRANCH  13  15
ENDBRANCH   7   8
ENDBRANCH   1   7
BRANCH   3  17
ATOM     17  C10 UNL     1      -0.221   0.102   2.691  1.00  0.00     0.117 C   
BRANCH  17  18
ATOM     18  N2  UNL     1      -0.171  -1.360   2.338  1.00  0.00     0.249 N   
ATOM     19  H11 UNL     1      -0.590  -1.952   3.059  1.00  0.00     0.199 HD  
ATOM     20  H12 UNL     1       0.829  -1.612   2.302  1.00  0.00     0.199 HD  
BRANCH  18  21
ATOM     21  C11 UNL     1      -0.755  -1.710   1.013  1.00  0.00     0.164 C   
BRANCH  21  22
ATOM     22  C12 UNL     1      -0.458  -3.142   0.669  1.00  0.00    -0.002 A   
ATOM     23  C13 UNL     1      -1.384  -4.168   0.971  1.00  0.00     0.012 A   
ATOM     24  C17 UNL     1       0.781  -3.475   0.086  1.00  0.00     0.045 A   
ATOM     25  C14 UNL     1      -1.092  -5.506   0.681  1.00  0.00     0.037 A   
ATOM     26  C16 UNL     1       1.038  -4.803  -0.183  1.00  0.00     0.109 A   
ATOM     27  C15 UNL     1       0.128  -5.791   0.105  1.00  0.00     0.108 A   
ATOM     28  O2  UNL     1       2.177  -5.292  -0.738  1.00  0.00    -0.316 OA  
ATOM     29  O3  UNL     1       0.580  -7.024  -0.238  1.00  0.00    -0.316 OA  
ATOM     30  C18 UNL     1       1.870  -6.701  -0.803  1.00  0.00     0.337 C   
ENDBRANCH  21  22
ENDBRANCH  18  21
ENDBRANCH  17  18
BRANCH  17  31
ATOM     31  C19 UNL     1      -0.053   0.295   4.221  1.00  0.00     0.037 C   
ATOM     32  C20 UNL     1      -1.285  -0.193   4.991  1.00  0.00     0.014 C   
ATOM     33  C21 UNL     1       1.208  -0.357   4.800  1.00  0.00     0.014 C   
ENDBRANCH  17  31
ENDBRANCH   3  17
TORSDOF 8
