REMARK SMILES c1cc2n(c1)CC[C@@H](n1cc([C@@H]([NH2+]Cc3ccc4c(c3)OCO4)C3CCCC3)nn1)C2
REMARK SMILES IDX 12 1 11 2 9 3 10 4 30 5 29 6 8 8 1 9 2 10 5 11 3 12 4 13
REMARK SMILES IDX 31 14 6 15 7 16 13 17 14 20 15 21 16 22 20 23 17 24 19 25
REMARK SMILES IDX 18 26 21 27 23 28 22 29 24 30 25 31 28 32 26 33 27 34
REMARK H PARENT 10 7 13 18 13 19
ROOT
ATOM     1   C10 UNL     1      -0.501  -0.915  -0.632  1.00  0.00     0.117 C   
ENDROOT
BRANCH   1   2
ATOM     2   C9  UNL     1       0.024   0.436  -0.259  1.00  0.00     0.127 A   
ATOM     3   N2  UNL     1       0.418   2.531   0.146  1.00  0.00    -0.209 N   
ATOM     4   C8  UNL     1      -0.507   1.696  -0.417  1.00  0.00     0.046 A   
ATOM     5   N5  UNL     1       1.494   1.827   0.556  1.00  0.00    -0.076 NA  
ATOM     6   N4  UNL     1       1.257   0.546   0.329  1.00  0.00    -0.132 NA  
ATOM     7   H9  UNL     1      -1.442   2.048  -0.832  1.00  0.00     0.083 HD  
BRANCH   3   8
ATOM     8   C7  UNL     1       0.376   3.972   0.379  1.00  0.00     0.107 C   
ATOM     9   C1  UNL     1      -4.250   4.371   0.891  1.00  0.00     0.017 A   
ATOM     10  C2  UNL     1      -3.364   4.674  -0.171  1.00  0.00     0.020 A   
ATOM     11  C4  UNL     1      -3.484   4.049   1.990  1.00  0.00     0.075 A   
ATOM     12  C3  UNL     1      -2.078   4.525   0.308  1.00  0.00     0.011 A   
ATOM     13  N1  UNL     1      -2.171   4.163   1.631  1.00  0.00    -0.311 N   
ATOM     14  C24 UNL     1      -0.754   4.709  -0.364  1.00  0.00     0.076 C   
ATOM     15  C5  UNL     1      -1.038   3.869   2.492  1.00  0.00     0.112 C   
ATOM     16  C6  UNL     1       0.297   4.301   1.883  1.00  0.00     0.045 C   
ENDBRANCH   3   8
ENDBRANCH   1   2
BRANCH   1  17
ATOM     17  N3  UNL     1       0.643  -1.892  -0.770  1.00  0.00     0.249 N   
ATOM     18  H11 UNL     1       0.323  -2.863  -0.698  1.00  0.00     0.199 HD  
ATOM     19  H12 UNL     1       1.269  -1.730   0.033  1.00  0.00     0.199 HD  
BRANCH  17  20
ATOM     20  C11 UNL     1       1.463  -1.741  -2.004  1.00  0.00     0.164 C   
BRANCH  20  21
ATOM     21  C12 UNL     1       2.627  -2.690  -1.976  1.00  0.00    -0.002 A   
ATOM     22  C13 UNL     1       3.827  -2.320  -1.321  1.00  0.00     0.012 A   
ATOM     23  C17 UNL     1       2.515  -3.969  -2.547  1.00  0.00     0.045 A   
ATOM     24  C14 UNL     1       4.906  -3.207  -1.245  1.00  0.00     0.037 A   
ATOM     25  C16 UNL     1       3.598  -4.818  -2.454  1.00  0.00     0.109 A   
ATOM     26  C15 UNL     1       4.760  -4.449  -1.822  1.00  0.00     0.108 A   
ATOM     27  O1  UNL     1       3.655  -6.082  -2.950  1.00  0.00    -0.316 OA  
ATOM     28  O2  UNL     1       5.696  -5.433  -1.842  1.00  0.00    -0.316 OA  
ATOM     29  C18 UNL     1       5.003  -6.459  -2.584  1.00  0.00     0.337 C   
ENDBRANCH  20  21
ENDBRANCH  17  20
ENDBRANCH   1  17
BRANCH   1  30
ATOM     30  C19 UNL     1      -1.504  -1.510   0.381  1.00  0.00     0.043 C   
ATOM     31  C20 UNL     1      -2.820  -0.718   0.521  1.00  0.00     0.010 C   
ATOM     32  C23 UNL     1      -0.971  -1.682   1.815  1.00  0.00     0.010 C   
ATOM     33  C21 UNL     1      -2.944  -0.372   1.999  1.00  0.00     0.001 C   
ATOM     34  C22 UNL     1      -2.193  -1.491   2.699  1.00  0.00     0.001 C   
ENDBRANCH   1  30
TORSDOF 6
