REMARK SMILES c1cc2n(c1)CC[C@H](n1cc([C@@H]([NH2+]Cc3ccc4c(c3)OCO4)C3CCCC3)nn1)C2
REMARK SMILES IDX 12 1 11 2 9 3 10 4 30 5 29 6 8 8 1 9 2 10 5 11 3 12 4 13
REMARK SMILES IDX 31 14 6 15 7 16 13 17 14 20 15 21 16 22 20 23 17 24 19 25
REMARK SMILES IDX 18 26 21 27 23 28 22 29 24 30 25 31 28 32 26 33 27 34
REMARK H PARENT 10 7 13 18 13 19
ROOT
ATOM     1   C10 UNL     1      -0.136   1.792   0.497  1.00  0.00     0.117 C   
ENDROOT
BRANCH   1   2
ATOM     2   C9  UNL     1      -1.217   0.851   0.916  1.00  0.00     0.127 A   
ATOM     3   N2  UNL     1      -2.465  -0.644   1.868  1.00  0.00    -0.209 N   
ATOM     4   C8  UNL     1      -1.545   0.335   2.149  1.00  0.00     0.046 A   
ATOM     5   N5  UNL     1      -2.770  -0.632   0.553  1.00  0.00    -0.076 NA  
ATOM     6   N4  UNL     1      -1.989   0.253  -0.043  1.00  0.00    -0.132 NA  
ATOM     7   H9  UNL     1      -1.166   0.514   3.146  1.00  0.00     0.083 HD  
BRANCH   3   8
ATOM     8   C7  UNL     1      -3.022  -1.653   2.770  1.00  0.00     0.107 C   
ATOM     9   C1  UNL     1       0.688  -4.343   2.077  1.00  0.00     0.017 A   
ATOM     10  C2  UNL     1       0.302  -3.481   3.133  1.00  0.00     0.020 A   
ATOM     11  C4  UNL     1      -0.409  -4.513   1.260  1.00  0.00     0.075 A   
ATOM     12  C3  UNL     1      -1.020  -3.143   2.927  1.00  0.00     0.011 A   
ATOM     13  N1  UNL     1      -1.445  -3.801   1.797  1.00  0.00    -0.311 N   
ATOM     14  C24 UNL     1      -1.950  -2.266   3.699  1.00  0.00     0.076 C   
ATOM     15  C5  UNL     1      -2.775  -3.688   1.220  1.00  0.00     0.112 C   
ATOM     16  C6  UNL     1      -3.736  -2.818   2.043  1.00  0.00     0.045 C   
ENDBRANCH   3   8
ENDBRANCH   1   2
BRANCH   1  17
ATOM     17  N3  UNL     1       0.617   1.161  -0.648  1.00  0.00     0.249 N   
ATOM     18  H11 UNL     1       1.132   1.847  -1.207  1.00  0.00     0.199 HD  
ATOM     19  H12 UNL     1      -0.099   0.763  -1.277  1.00  0.00     0.199 HD  
BRANCH  17  20
ATOM     20  C11 UNL     1       1.535   0.048  -0.271  1.00  0.00     0.164 C   
BRANCH  20  21
ATOM     21  C12 UNL     1       1.991  -0.696  -1.494  1.00  0.00    -0.002 A   
ATOM     22  C13 UNL     1       1.296  -1.861  -1.913  1.00  0.00     0.012 A   
ATOM     23  C17 UNL     1       3.066  -0.213  -2.262  1.00  0.00     0.045 A   
ATOM     24  C14 UNL     1       1.669  -2.543  -3.075  1.00  0.00     0.037 A   
ATOM     25  C16 UNL     1       3.404  -0.907  -3.406  1.00  0.00     0.109 A   
ATOM     26  C15 UNL     1       2.727  -2.038  -3.802  1.00  0.00     0.108 A   
ATOM     27  O1  UNL     1       4.404  -0.574  -4.266  1.00  0.00    -0.316 OA  
ATOM     28  O2  UNL     1       3.219  -2.560  -4.955  1.00  0.00    -0.316 OA  
ATOM     29  C18 UNL     1       4.287  -1.631  -5.248  1.00  0.00     0.337 C   
ENDBRANCH  20  21
ENDBRANCH  17  20
ENDBRANCH   1  17
BRANCH   1  30
ATOM     30  C19 UNL     1      -0.683   3.154   0.039  1.00  0.00     0.043 C   
ATOM     31  C20 UNL     1       0.414   4.167  -0.313  1.00  0.00     0.010 C   
ATOM     32  C23 UNL     1      -1.473   3.890   1.126  1.00  0.00     0.010 C   
ATOM     33  C21 UNL     1      -0.204   5.549  -0.095  1.00  0.00     0.001 C   
ATOM     34  C22 UNL     1      -1.548   5.312   0.589  1.00  0.00     0.001 C   
ENDBRANCH   1  30
TORSDOF 6
