REMARK SMILES CC(C)C[C@H]([NH2+]Cc1ccc2c(c1)OCO2)c1cn(Cc2cn[nH]c2C2CCCC2)nn1
REMARK SMILES IDX 17 1 18 2 19 3 31 4 32 5 5 7 4 8 2 9 1 10 3 11 6 12 7 15
REMARK SMILES IDX 8 16 9 17 13 18 10 19 12 20 11 21 14 22 16 23 15 24 20 25
REMARK SMILES IDX 21 26 22 27 25 28 23 29 24 30 26 32 27 33 30 34 28 35 29 36
REMARK H PARENT 18 6 6 13 6 14 24 31
ROOT
ATOM     1   C14 UNL     1       0.750   0.180   2.226  1.00  0.00     0.127 A   
ATOM     2   C15 UNL     1       1.087  -0.717   1.237  1.00  0.00     0.046 A   
ATOM     3   N2  UNL     1      -0.084  -1.378   0.980  1.00  0.00    -0.208 N   
ATOM     4   N5  UNL     1      -1.073  -0.930   1.780  1.00  0.00    -0.076 NA  
ATOM     5   N6  UNL     1      -0.578   0.034   2.537  1.00  0.00    -0.132 NA  
ATOM     6   H20 UNL     1       2.000  -0.924   0.696  1.00  0.00     0.083 HD  
ENDROOT
BRANCH   1   7
ATOM     7   C5  UNL     1       1.541   1.247   2.909  1.00  0.00     0.114 C   
BRANCH   7   8
ATOM     8   C4  UNL     1       2.074   0.761   4.270  1.00  0.00     0.064 C   
BRANCH   8   9
ATOM     9   C2  UNL     1       3.055   1.722   4.976  1.00  0.00    -0.012 C   
ATOM     10  C1  UNL     1       4.347   1.919   4.181  1.00  0.00     0.007 C   
ATOM     11  C3  UNL     1       3.388   1.184   6.371  1.00  0.00     0.007 C   
ENDBRANCH   8   9
ENDBRANCH   7   8
BRANCH   7  12
ATOM     12  N1  UNL     1       0.654   2.454   3.128  1.00  0.00     0.249 N   
ATOM     13  H11 UNL     1      -0.316   2.103   3.054  1.00  0.00     0.199 HD  
ATOM     14  H12 UNL     1       0.736   2.805   4.086  1.00  0.00     0.199 HD  
BRANCH  12  15
ATOM     15  C6  UNL     1       0.818   3.578   2.169  1.00  0.00     0.164 C   
BRANCH  15  16
ATOM     16  C7  UNL     1       0.472   3.216   0.752  1.00  0.00    -0.002 A   
ATOM     17  C8  UNL     1      -0.881   3.098   0.352  1.00  0.00     0.012 A   
ATOM     18  C12 UNL     1       1.489   2.955  -0.181  1.00  0.00     0.045 A   
ATOM     19  C9  UNL     1      -1.218   2.732  -0.956  1.00  0.00     0.037 A   
ATOM     20  C11 UNL     1       1.123   2.588  -1.460  1.00  0.00     0.109 A   
ATOM     21  C10 UNL     1      -0.192   2.481  -1.840  1.00  0.00     0.108 A   
ATOM     22  O1  UNL     1       1.982   2.298  -2.470  1.00  0.00    -0.316 OA  
ATOM     23  O2  UNL     1      -0.331   2.123  -3.143  1.00  0.00    -0.316 OA  
ATOM     24  C13 UNL     1       1.055   2.047  -3.554  1.00  0.00     0.337 C   
ENDBRANCH  15  16
ENDBRANCH  12  15
ENDBRANCH   7  12
ENDBRANCH   1   7
BRANCH   3  25
ATOM     25  C16 UNL     1      -0.317  -2.465   0.043  1.00  0.00     0.172 C   
BRANCH  25  26
ATOM     26  C17 UNL     1      -0.449  -1.948  -1.346  1.00  0.00     0.010 A   
ATOM     27  C18 UNL     1       0.571  -1.867  -2.320  1.00  0.00     0.138 A   
ATOM     28  C19 UNL     1      -1.581  -1.472  -1.994  1.00  0.00     0.034 A   
ATOM     29  N3  UNL     1       0.136  -1.367  -3.474  1.00  0.00    -0.192 NA  
ATOM     30  N4  UNL     1      -1.171  -1.145  -3.260  1.00  0.00    -0.242 N   
ATOM     31  H24 UNL     1      -1.721  -0.767  -4.027  1.00  0.00     0.175 HD  
BRANCH  28  32
ATOM     32  C20 UNL     1      -2.991  -1.335  -1.517  1.00  0.00     0.035 C   
ATOM     33  C21 UNL     1      -3.853  -0.311  -2.253  1.00  0.00     0.010 C   
ATOM     34  C24 UNL     1      -3.788  -2.642  -1.641  1.00  0.00     0.010 C   
ATOM     35  C22 UNL     1      -5.259  -0.708  -1.832  1.00  0.00     0.001 C   
ATOM     36  C23 UNL     1      -5.239  -2.230  -1.897  1.00  0.00     0.001 C   
ENDBRANCH  28  32
ENDBRANCH  25  26
ENDBRANCH   3  25
TORSDOF 9
