REMARK SMILES Cc1cscc1Cn1cc([C@H](CC(C)C)[NH2+]Cc2ccc3c(c2)OCO3)nn1
REMARK SMILES IDX 8 1 9 2 10 3 27 4 28 5 7 7 6 8 2 9 3 10 4 11 5 12 1 13 11 14
REMARK SMILES IDX 12 15 13 16 14 17 15 18 16 19 17 22 18 23 19 24 23 25 20 26
REMARK SMILES IDX 22 27 21 28 24 29 26 30 25 31
REMARK H PARENT 9 6 16 20 16 21
ROOT
ATOM     1   N1  UNL     1       0.624   1.609  -1.872  1.00  0.00    -0.208 N   
ATOM     2   C7  UNL     1       0.562   0.976  -0.659  1.00  0.00     0.046 A   
ATOM     3   C8  UNL     1      -0.584   0.217  -0.737  1.00  0.00     0.127 A   
ATOM     4   N3  UNL     1      -1.205   0.463  -1.934  1.00  0.00    -0.132 NA  
ATOM     5   N4  UNL     1      -0.470   1.332  -2.609  1.00  0.00    -0.076 NA  
ATOM     6   H8  UNL     1       1.332   1.088   0.092  1.00  0.00     0.083 HD  
ENDROOT
BRANCH   1   7
ATOM     7   C6  UNL     1       1.658   2.498  -2.380  1.00  0.00     0.170 C   
BRANCH   7   8
ATOM     8   C5  UNL     1       2.995   1.811  -2.398  1.00  0.00    -0.018 A   
ATOM     9   C2  UNL     1       3.389   0.772  -3.329  1.00  0.00    -0.039 A   
ATOM     10  C3  UNL     1       4.676   0.335  -3.075  1.00  0.00     0.049 A   
ATOM     11  S1  UNL     1       5.409   1.145  -1.766  1.00  0.00    -0.105 S   
ATOM     12  C4  UNL     1       4.022   2.106  -1.518  1.00  0.00     0.051 A   
ATOM     13  C1  UNL     1       2.530   0.224  -4.425  1.00  0.00     0.045 C   
ENDBRANCH   7   8
ENDBRANCH   1   7
BRANCH   3  14
ATOM     14  C9  UNL     1      -1.206  -0.727   0.235  1.00  0.00     0.114 C   
BRANCH  14  15
ATOM     15  C10 UNL     1      -0.861  -2.199  -0.073  1.00  0.00     0.064 C   
BRANCH  15  16
ATOM     16  C11 UNL     1       0.637  -2.560   0.028  1.00  0.00    -0.012 C   
ATOM     17  C12 UNL     1       1.203  -2.322   1.428  1.00  0.00     0.007 C   
ATOM     18  C13 UNL     1       0.841  -4.026  -0.367  1.00  0.00     0.007 C   
ENDBRANCH  15  16
ENDBRANCH  14  15
BRANCH  14  19
ATOM     19  N2  UNL     1      -2.718  -0.617   0.179  1.00  0.00     0.249 N   
ATOM     20  H19 UNL     1      -3.146  -1.393   0.693  1.00  0.00     0.199 HD  
ATOM     21  H20 UNL     1      -2.977  -0.723  -0.812  1.00  0.00     0.199 HD  
BRANCH  19  22
ATOM     22  C14 UNL     1      -3.309   0.670   0.655  1.00  0.00     0.164 C   
BRANCH  22  23
ATOM     23  C15 UNL     1      -3.093   0.905   2.124  1.00  0.00    -0.002 A   
ATOM     24  C16 UNL     1      -3.830   0.173   3.085  1.00  0.00     0.012 A   
ATOM     25  C20 UNL     1      -2.128   1.833   2.553  1.00  0.00     0.045 A   
ATOM     26  C17 UNL     1      -3.606   0.357   4.454  1.00  0.00     0.037 A   
ATOM     27  C19 UNL     1      -1.930   1.988   3.909  1.00  0.00     0.109 A   
ATOM     28  C18 UNL     1      -2.648   1.270   4.833  1.00  0.00     0.108 A   
ATOM     29  O1  UNL     1      -1.034   2.830   4.486  1.00  0.00    -0.316 OA  
ATOM     30  O2  UNL     1      -2.297   1.573   6.110  1.00  0.00    -0.316 OA  
ATOM     31  C21 UNL     1      -1.294   2.587   5.888  1.00  0.00     0.337 C   
ENDBRANCH  22  23
ENDBRANCH  19  22
ENDBRANCH  14  19
ENDBRANCH   3  14
TORSDOF 8
