REMARK SMILES NCc1cccc(Cn2cc([C@@H]([NH2+]Cc3ccc4c(c3)OCO4)C3CCCC3)nn2)c1
REMARK SMILES IDX 9 1 10 2 11 3 29 4 30 5 8 7 7 8 3 9 4 10 31 11 5 12 6 13
REMARK SMILES IDX 2 14 1 15 12 18 13 19 14 22 15 23 16 24 20 25 17 26 19 27
REMARK SMILES IDX 18 28 21 29 23 30 22 31 24 32 25 33 28 34 26 35 27 36
REMARK H PARENT 10 6 1 16 1 17 13 20 13 21
ROOT
ATOM     1   N2  UNL     1      -0.792   0.371  -3.083  1.00  0.00    -0.208 N   
ATOM     2   C8  UNL     1      -0.128  -0.704  -2.539  1.00  0.00     0.046 A   
ATOM     3   C9  UNL     1       0.766  -0.113  -1.672  1.00  0.00     0.127 A   
ATOM     4   N4  UNL     1       0.827   1.228  -1.949  1.00  0.00    -0.132 NA  
ATOM     5   N5  UNL     1      -0.123   1.512  -2.826  1.00  0.00    -0.076 NA  
ATOM     6   H10 UNL     1      -0.503  -1.710  -2.649  1.00  0.00     0.083 HD  
ENDROOT
BRANCH   1   7
ATOM     7   C7  UNL     1      -2.222   0.414  -3.378  1.00  0.00     0.169 C   
BRANCH   7   8
ATOM     8   C6  UNL     1      -2.977   0.443  -2.059  1.00  0.00    -0.028 A   
ATOM     9   C2  UNL     1      -3.510  -0.651   0.067  1.00  0.00    -0.034 A   
ATOM     10  C3  UNL     1      -4.011   0.562   0.551  1.00  0.00     0.005 A   
ATOM     11  C24 UNL     1      -3.035  -0.708  -1.250  1.00  0.00     0.010 A   
ATOM     12  C4  UNL     1      -4.019   1.697  -0.262  1.00  0.00     0.001 A   
ATOM     13  C5  UNL     1      -3.490   1.645  -1.554  1.00  0.00     0.005 A   
BRANCH   9  14
ATOM     14  C1  UNL     1      -3.398  -1.860   0.953  1.00  0.00     0.113 C   
BRANCH  14  15
ATOM     15  N1  UNL     1      -2.100  -1.846   1.659  1.00  0.00    -0.327 NA  
ATOM     16  H1  UNL     1      -2.066  -2.738   2.171  1.00  0.00     0.119 HD  
ATOM     17  H2  UNL     1      -2.216  -1.160   2.411  1.00  0.00     0.119 HD  
ENDBRANCH  14  15
ENDBRANCH   9  14
ENDBRANCH   7   8
ENDBRANCH   1   7
BRANCH   3  18
ATOM     18  C10 UNL     1       1.442  -0.638  -0.446  1.00  0.00     0.117 C   
BRANCH  18  19
ATOM     19  N3  UNL     1       0.505  -0.578   0.742  1.00  0.00     0.249 N   
ATOM     20  H12 UNL     1       0.919  -1.056   1.543  1.00  0.00     0.199 HD  
ATOM     21  H13 UNL     1      -0.373  -1.089   0.546  1.00  0.00     0.199 HD  
BRANCH  19  22
ATOM     22  C11 UNL     1       0.093   0.789   1.185  1.00  0.00     0.164 C   
BRANCH  22  23
ATOM     23  C12 UNL     1       1.201   1.545   1.863  1.00  0.00    -0.002 A   
ATOM     24  C13 UNL     1       1.830   2.633   1.214  1.00  0.00     0.012 A   
ATOM     25  C17 UNL     1       1.625   1.169   3.150  1.00  0.00     0.045 A   
ATOM     26  C14 UNL     1       2.862   3.344   1.837  1.00  0.00     0.037 A   
ATOM     27  C16 UNL     1       2.644   1.891   3.735  1.00  0.00     0.109 A   
ATOM     28  C15 UNL     1       3.242   2.951   3.100  1.00  0.00     0.108 A   
ATOM     29  O1  UNL     1       3.158   1.665   4.970  1.00  0.00    -0.316 OA  
ATOM     30  O2  UNL     1       4.206   3.532   3.859  1.00  0.00    -0.316 OA  
ATOM     31  C18 UNL     1       4.141   2.723   5.052  1.00  0.00     0.337 C   
ENDBRANCH  22  23
ENDBRANCH  19  22
ENDBRANCH  18  19
BRANCH  18  32
ATOM     32  C19 UNL     1       2.035  -2.052  -0.611  1.00  0.00     0.043 C   
ATOM     33  C20 UNL     1       3.080  -2.403   0.456  1.00  0.00     0.010 C   
ATOM     34  C23 UNL     1       1.076  -3.241  -0.511  1.00  0.00     0.010 C   
ATOM     35  C21 UNL     1       3.303  -3.897   0.267  1.00  0.00     0.001 C   
ATOM     36  C22 UNL     1       1.979  -4.450  -0.250  1.00  0.00     0.001 C   
ENDBRANCH  18  32
ENDBRANCH   3  18
TORSDOF 9
