REMARK SMILES CC(C)(C)[C@H]([NH2+]Cc1ccc2c(c1)OCO2)c1cn(Cc2cc(C3CC3)no2)nn1
REMARK SMILES IDX 17 1 18 2 19 3 29 4 30 5 5 7 2 8 1 9 3 10 4 11 6 12 7 15
REMARK SMILES IDX 8 16 9 17 13 18 10 19 12 20 11 21 14 22 16 23 15 24 20 25
REMARK SMILES IDX 21 26 22 27 28 28 23 29 27 30 24 31 25 32 26 33
REMARK H PARENT 18 6 6 13 6 14
ROOT
ATOM     1   C14 UNL     1       0.537  -2.283   1.024  1.00  0.00     0.127 A   
ATOM     2   C15 UNL     1       0.502  -2.729  -0.279  1.00  0.00     0.046 A   
ATOM     3   N2  UNL     1      -0.491  -3.671  -0.279  1.00  0.00    -0.206 N   
ATOM     4   N4  UNL     1      -0.989  -3.840   0.961  1.00  0.00    -0.076 NA  
ATOM     5   N5  UNL     1      -0.371  -2.992   1.766  1.00  0.00    -0.132 NA  
ATOM     6   H20 UNL     1       1.018  -2.427  -1.181  1.00  0.00     0.083 HD  
ENDROOT
BRANCH   1   7
ATOM     7   C5  UNL     1       1.275  -1.137   1.643  1.00  0.00     0.120 C   
BRANCH   7   8
ATOM     8   C2  UNL     1       2.568  -1.554   2.429  1.00  0.00     0.010 C   
ATOM     9   C1  UNL     1       3.526  -2.328   1.494  1.00  0.00     0.017 C   
ATOM     10  C3  UNL     1       3.331  -0.299   2.915  1.00  0.00     0.017 C   
ATOM     11  C4  UNL     1       2.271  -2.439   3.656  1.00  0.00     0.017 C   
ENDBRANCH   7   8
BRANCH   7  12
ATOM     12  N1  UNL     1       0.332  -0.359   2.543  1.00  0.00     0.250 N   
ATOM     13  H11 UNL     1       0.838   0.359   3.064  1.00  0.00     0.199 HD  
ATOM     14  H12 UNL     1      -0.046  -1.031   3.225  1.00  0.00     0.199 HD  
BRANCH  12  15
ATOM     15  C6  UNL     1      -0.850   0.282   1.880  1.00  0.00     0.164 C   
BRANCH  15  16
ATOM     16  C7  UNL     1      -0.472   1.272   0.813  1.00  0.00    -0.002 A   
ATOM     17  C8  UNL     1      -0.765   0.996  -0.544  1.00  0.00     0.012 A   
ATOM     18  C12 UNL     1       0.194   2.463   1.147  1.00  0.00     0.045 A   
ATOM     19  C9  UNL     1      -0.386   1.881  -1.558  1.00  0.00     0.037 A   
ATOM     20  C11 UNL     1       0.555   3.314   0.123  1.00  0.00     0.109 A   
ATOM     21  C10 UNL     1       0.278   3.030  -1.192  1.00  0.00     0.108 A   
ATOM     22  O1  UNL     1       1.213   4.495   0.271  1.00  0.00    -0.316 OA  
ATOM     23  O2  UNL     1       0.723   3.997  -2.035  1.00  0.00    -0.316 OA  
ATOM     24  C13 UNL     1       1.280   4.946  -1.101  1.00  0.00     0.337 C   
ENDBRANCH  15  16
ENDBRANCH  12  15
ENDBRANCH   7  12
ENDBRANCH   1   7
BRANCH   3  25
ATOM     25  C16 UNL     1      -1.079  -4.364  -1.417  1.00  0.00     0.198 C   
BRANCH  25  26
ATOM     26  C17 UNL     1      -1.571  -3.393  -2.423  1.00  0.00     0.106 A   
ATOM     27  C18 UNL     1      -1.445  -3.276  -3.788  1.00  0.00     0.060 A   
ATOM     28  O3  UNL     1      -2.310  -2.349  -1.952  1.00  0.00    -0.216 OA  
ATOM     29  C19 UNL     1      -2.123  -2.080  -4.086  1.00  0.00     0.074 A   
ATOM     30  N3  UNL     1      -2.632  -1.502  -2.996  1.00  0.00    -0.134 NA  
BRANCH  29  31
ATOM     31  C20 UNL     1      -2.282  -1.490  -5.510  1.00  0.00     0.041 C   
ATOM     32  C21 UNL     1      -1.833  -0.074  -5.772  1.00  0.00     0.011 C   
ATOM     33  C22 UNL     1      -1.059  -1.222  -6.349  1.00  0.00     0.011 C   
ENDBRANCH  29  31
ENDBRANCH  25  26
ENDBRANCH   3  25
TORSDOF 8
