REMARK SMILES Cc1cnn(CCn2cc([C@H](CC(C)C)[NH2+]Cc3ccc4c(c3)OCO4)nn2)c1
REMARK SMILES IDX 8 1 9 2 10 3 27 4 28 5 7 7 6 8 5 9 2 10 3 11 29 12 4 13 1 14
REMARK SMILES IDX 11 15 12 16 13 17 14 18 15 19 16 20 17 23 18 24 19 25 23 26
REMARK SMILES IDX 20 27 22 28 21 29 24 30 26 31 25 32
REMARK H PARENT 9 6 16 21 16 22
ROOT
ATOM     1   N3  UNL     1       1.069  -1.664  -2.011  1.00  0.00    -0.210 N   
ATOM     2   C6  UNL     1       0.247  -0.941  -1.197  1.00  0.00     0.045 A   
ATOM     3   C7  UNL     1       1.063  -0.561  -0.157  1.00  0.00     0.127 A   
ATOM     4   N5  UNL     1       2.303  -1.123  -0.329  1.00  0.00    -0.132 NA  
ATOM     5   N6  UNL     1       2.290  -1.805  -1.464  1.00  0.00    -0.076 NA  
ATOM     6   H9  UNL     1      -0.779  -0.719  -1.461  1.00  0.00     0.083 HD  
ENDROOT
BRANCH   1   7
ATOM     7   C5  UNL     1       0.782  -2.199  -3.325  1.00  0.00     0.155 C   
BRANCH   7   8
ATOM     8   C4  UNL     1       1.334  -1.316  -4.437  1.00  0.00     0.153 C   
BRANCH   8   9
ATOM     9   N2  UNL     1       0.790   0.030  -4.420  1.00  0.00    -0.231 N   
ATOM     10  C2  UNL     1       0.559   2.214  -4.456  1.00  0.00    -0.015 A   
ATOM     11  C3  UNL     1      -0.677   1.541  -4.336  1.00  0.00     0.136 A   
ATOM     12  C21 UNL     1       1.490   1.197  -4.500  1.00  0.00     0.100 A   
ATOM     13  N1  UNL     1      -0.536   0.214  -4.280  1.00  0.00    -0.190 NA  
ATOM     14  C1  UNL     1       0.793   3.673  -4.539  1.00  0.00     0.047 C   
ENDBRANCH   8   9
ENDBRANCH   7   8
ENDBRANCH   1   7
BRANCH   3  15
ATOM     15  C8  UNL     1       0.793   0.290   1.035  1.00  0.00     0.114 C   
BRANCH  15  16
ATOM     16  C9  UNL     1       1.313   1.731   0.857  1.00  0.00     0.064 C   
BRANCH  16  17
ATOM     17  C10 UNL     1       0.677   2.524  -0.307  1.00  0.00    -0.012 C   
ATOM     18  C11 UNL     1       1.330   3.905  -0.409  1.00  0.00     0.007 C   
ATOM     19  C12 UNL     1      -0.836   2.679  -0.153  1.00  0.00     0.007 C   
ENDBRANCH  16  17
ENDBRANCH  15  16
BRANCH  15  20
ATOM     20  N4  UNL     1       1.496  -0.279   2.252  1.00  0.00     0.249 N   
ATOM     21  H20 UNL     1       1.480   0.402   3.016  1.00  0.00     0.199 HD  
ATOM     22  H21 UNL     1       2.480  -0.411   1.977  1.00  0.00     0.199 HD  
BRANCH  20  23
ATOM     23  C13 UNL     1       0.994  -1.592   2.754  1.00  0.00     0.164 C   
BRANCH  23  24
ATOM     24  C14 UNL     1      -0.398  -1.510   3.315  1.00  0.00    -0.002 A   
ATOM     25  C15 UNL     1      -0.629  -0.910   4.577  1.00  0.00     0.012 A   
ATOM     26  C19 UNL     1      -1.487  -1.997   2.571  1.00  0.00     0.045 A   
ATOM     27  C16 UNL     1      -1.926  -0.793   5.089  1.00  0.00     0.037 A   
ATOM     28  C18 UNL     1      -2.752  -1.864   3.105  1.00  0.00     0.109 A   
ATOM     29  C17 UNL     1      -2.966  -1.278   4.327  1.00  0.00     0.108 A   
ATOM     30  O1  UNL     1      -3.905  -2.271   2.514  1.00  0.00    -0.316 OA  
ATOM     31  O2  UNL     1      -4.281  -1.246   4.663  1.00  0.00    -0.316 OA  
ATOM     32  C20 UNL     1      -4.874  -1.903   3.522  1.00  0.00     0.337 C   
ENDBRANCH  23  24
ENDBRANCH  20  23
ENDBRANCH  15  20
ENDBRANCH   3  15
TORSDOF 9
