REMARK SMILES CC(C)(C)[C@H]([NH2+]Cc1ccc2c(c1)OCO2)c1cn(Cc2ccc(F)cn2)nn1
REMARK SMILES IDX 17 1 18 2 19 3 28 4 29 5 5 7 2 8 1 9 3 10 4 11 6 12 7 15
REMARK SMILES IDX 8 16 9 17 13 18 10 19 12 20 11 21 14 22 16 23 15 24 20 25
REMARK SMILES IDX 21 26 22 27 27 28 23 29 26 30 24 31 25 32
REMARK H PARENT 18 6 6 13 6 14
ROOT
ATOM     1   C14 UNL     1       0.562  -0.503   1.751  1.00  0.00     0.127 A   
ATOM     2   C15 UNL     1       0.657   0.429   2.760  1.00  0.00     0.046 A   
ATOM     3   N2  UNL     1       1.963   0.836   2.716  1.00  0.00    -0.206 N   
ATOM     4   N4  UNL     1       2.630   0.201   1.732  1.00  0.00    -0.076 NA  
ATOM     5   N5  UNL     1       1.784  -0.621   1.134  1.00  0.00    -0.132 NA  
ATOM     6   H20 UNL     1      -0.050   0.844   3.466  1.00  0.00     0.083 HD  
ENDROOT
BRANCH   1   7
ATOM     7   C5  UNL     1      -0.611  -1.270   1.219  1.00  0.00     0.120 C   
BRANCH   7   8
ATOM     8   C2  UNL     1      -0.796  -2.690   1.861  1.00  0.00     0.010 C   
ATOM     9   C1  UNL     1      -2.107  -3.339   1.358  1.00  0.00     0.017 C   
ATOM     10  C3  UNL     1       0.371  -3.645   1.541  1.00  0.00     0.017 C   
ATOM     11  C4  UNL     1      -0.917  -2.569   3.397  1.00  0.00     0.017 C   
ENDBRANCH   7   8
BRANCH   7  12
ATOM     12  N1  UNL     1      -0.467  -1.386  -0.281  1.00  0.00     0.250 N   
ATOM     13  H11 UNL     1       0.512  -1.655  -0.462  1.00  0.00     0.199 HD  
ATOM     14  H12 UNL     1      -1.045  -2.131  -0.676  1.00  0.00     0.199 HD  
BRANCH  12  15
ATOM     15  C6  UNL     1      -0.722  -0.131  -1.043  1.00  0.00     0.164 C   
BRANCH  15  16
ATOM     16  C7  UNL     1      -0.455  -0.347  -2.506  1.00  0.00    -0.002 A   
ATOM     17  C8  UNL     1       0.857  -0.193  -3.017  1.00  0.00     0.012 A   
ATOM     18  C12 UNL     1      -1.489  -0.758  -3.363  1.00  0.00     0.045 A   
ATOM     19  C9  UNL     1       1.134  -0.433  -4.367  1.00  0.00     0.037 A   
ATOM     20  C11 UNL     1      -1.181  -0.986  -4.688  1.00  0.00     0.109 A   
ATOM     21  C10 UNL     1       0.093  -0.828  -5.177  1.00  0.00     0.108 A   
ATOM     22  O1  UNL     1      -2.058  -1.387  -5.645  1.00  0.00    -0.316 OA  
ATOM     23  O2  UNL     1       0.177  -1.107  -6.503  1.00  0.00    -0.316 OA  
ATOM     24  C13 UNL     1      -1.195  -1.440  -6.804  1.00  0.00     0.337 C   
ENDBRANCH  15  16
ENDBRANCH  12  15
ENDBRANCH   7  12
ENDBRANCH   1   7
BRANCH   3  25
ATOM     25  C16 UNL     1       2.628   1.806   3.562  1.00  0.00     0.190 C   
BRANCH  25  26
ATOM     26  C17 UNL     1       2.403   3.196   3.029  1.00  0.00     0.060 A   
ATOM     27  C18 UNL     1       3.360   3.812   2.219  1.00  0.00     0.028 A   
ATOM     28  N3  UNL     1       1.226   3.797   3.355  1.00  0.00    -0.257 NA  
ATOM     29  C19 UNL     1       3.113   5.098   1.741  1.00  0.00     0.043 A   
ATOM     30  C21 UNL     1       1.022   5.053   2.881  1.00  0.00     0.150 A   
ATOM     31  C20 UNL     1       1.926   5.725   2.082  1.00  0.00     0.141 A   
ATOM     32  F1  UNL     1       1.659   6.958   1.636  1.00  0.00    -0.205 F   
ENDBRANCH  25  26
ENDBRANCH   3  25
TORSDOF 7
