REMARK SMILES Cc1n[nH]c(C2CCC2)c1Cn1cc([C@H](CC(C)C)[NH2+]Cc2ccc3c(c2)OCO3)nn1
REMARK SMILES IDX 12 1 13 2 14 3 31 4 32 5 11 7 10 8 2 9 3 10 4 11 5 12 1 13
REMARK SMILES IDX 6 15 7 16 9 17 8 18 15 19 16 20 17 21 18 22 19 23 20 24
REMARK SMILES IDX 21 27 22 28 23 29 27 30 24 31 26 32 25 33 28 34 30 35 29 36
REMARK H PARENT 13 6 4 14 20 25 20 26
ROOT
ATOM     1   N3  UNL     1       1.868   0.650  -0.303  1.00  0.00    -0.208 N   
ATOM     2   C10 UNL     1       0.965  -0.261  -0.781  1.00  0.00     0.046 A   
ATOM     3   C11 UNL     1       0.409   0.360  -1.875  1.00  0.00     0.127 A   
ATOM     4   N5  UNL     1       0.972   1.602  -2.024  1.00  0.00    -0.132 NA  
ATOM     5   N6  UNL     1       1.857   1.771  -1.056  1.00  0.00    -0.076 NA  
ATOM     6   H14 UNL     1       0.801  -1.218  -0.306  1.00  0.00     0.083 HD  
ENDROOT
BRANCH   1   7
ATOM     7   C9  UNL     1       2.705   0.583   0.887  1.00  0.00     0.173 C   
BRANCH   7   8
ATOM     8   C8  UNL     1       3.228  -0.792   1.124  1.00  0.00     0.013 A   
ATOM     9   C2  UNL     1       4.238  -1.463   0.373  1.00  0.00     0.062 A   
ATOM     10  N1  UNL     1       4.452  -2.702   0.826  1.00  0.00    -0.189 NA  
ATOM     11  N2  UNL     1       3.652  -2.812   1.892  1.00  0.00    -0.242 N   
ATOM     12  C3  UNL     1       2.869  -1.712   2.091  1.00  0.00     0.035 A   
ATOM     13  C1  UNL     1       5.002  -0.959  -0.798  1.00  0.00     0.069 C   
ATOM     14  H4  UNL     1       3.683  -3.674   2.430  1.00  0.00     0.175 HD  
BRANCH  12  15
ATOM     15  C4  UNL     1       1.804  -1.541   3.208  1.00  0.00     0.036 C   
ATOM     16  C5  UNL     1       0.964  -2.798   3.548  1.00  0.00     0.010 C   
ATOM     17  C7  UNL     1       2.348  -1.616   4.655  1.00  0.00     0.010 C   
ATOM     18  C6  UNL     1       1.044  -2.354   5.025  1.00  0.00     0.001 C   
ENDBRANCH  12  15
ENDBRANCH   7   8
ENDBRANCH   1   7
BRANCH   3  19
ATOM     19  C12 UNL     1      -0.691  -0.056  -2.793  1.00  0.00     0.114 C   
BRANCH  19  20
ATOM     20  C13 UNL     1      -0.186  -0.357  -4.218  1.00  0.00     0.064 C   
BRANCH  20  21
ATOM     21  C14 UNL     1       0.820  -1.524  -4.317  1.00  0.00    -0.012 C   
ATOM     22  C15 UNL     1       1.318  -1.658  -5.758  1.00  0.00     0.007 C   
ATOM     23  C16 UNL     1       0.217  -2.851  -3.853  1.00  0.00     0.007 C   
ENDBRANCH  20  21
ENDBRANCH  19  20
BRANCH  19  24
ATOM     24  N4  UNL     1      -1.698   1.078  -2.900  1.00  0.00     0.249 N   
ATOM     25  H25 UNL     1      -2.072   1.131  -3.851  1.00  0.00     0.199 HD  
ATOM     26  H26 UNL     1      -1.160   1.947  -2.759  1.00  0.00     0.199 HD  
BRANCH  24  27
ATOM     27  C17 UNL     1      -2.836   1.052  -1.934  1.00  0.00     0.164 C   
BRANCH  27  28
ATOM     28  C18 UNL     1      -2.426   1.038  -0.486  1.00  0.00    -0.002 A   
ATOM     29  C19 UNL     1      -2.565  -0.143   0.284  1.00  0.00     0.012 A   
ATOM     30  C23 UNL     1      -1.859   2.184   0.103  1.00  0.00     0.045 A   
ATOM     31  C20 UNL     1      -2.130  -0.192   1.613  1.00  0.00     0.037 A   
ATOM     32  C22 UNL     1      -1.446   2.101   1.417  1.00  0.00     0.109 A   
ATOM     33  C21 UNL     1      -1.571   0.946   2.149  1.00  0.00     0.108 A   
ATOM     34  O1  UNL     1      -0.871   3.106   2.128  1.00  0.00    -0.316 OA  
ATOM     35  O2  UNL     1      -1.080   1.075   3.409  1.00  0.00    -0.316 OA  
ATOM     36  C24 UNL     1      -0.685   2.465   3.409  1.00  0.00     0.337 C   
ENDBRANCH  27  28
ENDBRANCH  24  27
ENDBRANCH  19  24
ENDBRANCH   3  19
TORSDOF 9
