REMARK SMILES CC(C)[C@H]([NH2+]Cc1ccc2c(c1)OCO2)c1cn(CCc2cnc[nH]2)nn1
REMARK SMILES IDX 16 1 17 2 18 3 26 4 27 5 4 7 2 8 1 9 3 10 5 11 6 14 7 15
REMARK SMILES IDX 8 16 12 17 9 18 11 19 10 20 13 21 15 22 14 23 19 24 20 25
REMARK SMILES IDX 21 26 22 27 25 28 23 29 24 30
REMARK H PARENT 17 6 5 12 5 13 25 31
ROOT
ATOM     1   C13 UNL     1       0.277  -0.670  -2.765  1.00  0.00     0.127 A   
ATOM     2   C14 UNL     1       1.630  -0.942  -2.800  1.00  0.00     0.045 A   
ATOM     3   N2  UNL     1       2.153   0.150  -3.442  1.00  0.00    -0.212 N   
ATOM     4   N5  UNL     1       1.173   0.910  -3.971  1.00  0.00    -0.076 NA  
ATOM     5   N6  UNL     1       0.019   0.439  -3.528  1.00  0.00    -0.132 NA  
ATOM     6   H18 UNL     1       2.252  -1.667  -2.294  1.00  0.00     0.083 HD  
ENDROOT
BRANCH   1   7
ATOM     7   C4  UNL     1      -0.801  -1.251  -1.901  1.00  0.00     0.117 C   
BRANCH   7   8
ATOM     8   C2  UNL     1      -1.915  -1.993  -2.679  1.00  0.00     0.037 C   
ATOM     9   C1  UNL     1      -1.349  -3.191  -3.452  1.00  0.00     0.014 C   
ATOM     10  C3  UNL     1      -2.742  -1.116  -3.626  1.00  0.00     0.014 C   
ENDBRANCH   7   8
BRANCH   7  11
ATOM     11  N1  UNL     1      -1.365  -0.134  -1.056  1.00  0.00     0.249 N   
ATOM     12  H9  UNL     1      -1.763   0.572  -1.685  1.00  0.00     0.199 HD  
ATOM     13  H10 UNL     1      -0.566   0.383  -0.631  1.00  0.00     0.199 HD  
BRANCH  11  14
ATOM     14  C5  UNL     1      -2.303  -0.454   0.046  1.00  0.00     0.164 C   
BRANCH  14  15
ATOM     15  C6  UNL     1      -1.719  -1.367   1.089  1.00  0.00    -0.002 A   
ATOM     16  C7  UNL     1      -2.078  -2.736   1.133  1.00  0.00     0.012 A   
ATOM     17  C11 UNL     1      -0.781  -0.872   2.013  1.00  0.00     0.045 A   
ATOM     18  C8  UNL     1      -1.506  -3.602   2.072  1.00  0.00     0.037 A   
ATOM     19  C10 UNL     1      -0.236  -1.751   2.926  1.00  0.00     0.109 A   
ATOM     20  C9  UNL     1      -0.587  -3.079   2.953  1.00  0.00     0.108 A   
ATOM     21  O1  UNL     1       0.686  -1.438   3.873  1.00  0.00    -0.316 OA  
ATOM     22  O2  UNL     1       0.069  -3.768   3.922  1.00  0.00    -0.316 OA  
ATOM     23  C12 UNL     1       0.844  -2.714   4.534  1.00  0.00     0.337 C   
ENDBRANCH  14  15
ENDBRANCH  11  14
ENDBRANCH   7  11
ENDBRANCH   1   7
BRANCH   3  24
ATOM     24  C15 UNL     1       3.475   0.724  -3.260  1.00  0.00     0.140 C   
BRANCH  24  25
ATOM     25  C16 UNL     1       3.773   1.158  -1.807  1.00  0.00     0.074 C   
BRANCH  25  26
ATOM     26  C17 UNL     1       2.564   1.625  -1.061  1.00  0.00     0.028 A   
ATOM     27  C18 UNL     1       1.812   1.010  -0.081  1.00  0.00     0.131 A   
ATOM     28  N4  UNL     1       1.888   2.788  -1.338  1.00  0.00    -0.308 N   
ATOM     29  N3  UNL     1       0.593   1.632   0.055  1.00  0.00    -0.248 NA  
ATOM     30  C19 UNL     1       0.705   2.742  -0.648  1.00  0.00     0.185 A   
ATOM     31  H25 UNL     1       2.155   3.507  -2.000  1.00  0.00     0.153 HD  
ENDBRANCH  25  26
ENDBRANCH  24  25
ENDBRANCH   3  24
TORSDOF 8
