REMARK SMILES CC(C)C[C@H]([NH2+]Cc1ccc2c(c1)OCO2)c1cn(CCCc2ccc(N)cc2)nn1
REMARK SMILES IDX 20 1 19 2 17 3 18 4 31 5 30 6 5 8 4 9 2 10 1 11 3 12 6 13
REMARK SMILES IDX 7 16 8 17 9 18 13 19 10 20 12 21 11 22 14 23 16 24 15 25
REMARK SMILES IDX 21 26 22 27 23 28 24 29 29 30 25 31 28 32 26 33 27 34
REMARK H PARENT 18 7 6 14 6 15 27 35 27 36
ROOT
ATOM     1   C16 UNL     1       2.361  -2.346   4.206  1.00  0.00     0.134 C   
ENDROOT
BRANCH   1   2
ATOM     2   N2  UNL     1       2.312  -1.906   2.828  1.00  0.00    -0.212 N   
ATOM     3   C14 UNL     1       1.923  -0.864   0.972  1.00  0.00     0.127 A   
ATOM     4   C15 UNL     1       1.829  -0.722   2.338  1.00  0.00     0.045 A   
ATOM     5   N5  UNL     1       2.497  -2.084   0.692  1.00  0.00    -0.132 NA  
ATOM     6   N4  UNL     1       2.741  -2.700   1.835  1.00  0.00    -0.076 NA  
ATOM     7   H20 UNL     1       1.418   0.046   2.983  1.00  0.00     0.083 HD  
BRANCH   3   8
ATOM     8   C5  UNL     1       1.448  -0.039  -0.188  1.00  0.00     0.114 C   
BRANCH   8   9
ATOM     9   C4  UNL     1       0.648   1.219   0.191  1.00  0.00     0.064 C   
BRANCH   9  10
ATOM     10  C2  UNL     1       1.501   2.366   0.787  1.00  0.00    -0.012 C   
ATOM     11  C1  UNL     1       2.568   2.870  -0.188  1.00  0.00     0.007 C   
ATOM     12  C3  UNL     1       0.603   3.534   1.202  1.00  0.00     0.007 C   
ENDBRANCH   9  10
ENDBRANCH   8   9
BRANCH   8  13
ATOM     13  N1  UNL     1       0.593  -0.934  -1.056  1.00  0.00     0.249 N   
ATOM     14  H11 UNL     1       0.833  -1.894  -0.765  1.00  0.00     0.199 HD  
ATOM     15  H12 UNL     1      -0.410  -0.872  -0.802  1.00  0.00     0.199 HD  
BRANCH  13  16
ATOM     16  C6  UNL     1       0.790  -0.872  -2.520  1.00  0.00     0.164 C   
BRANCH  16  17
ATOM     17  C7  UNL     1       0.183   0.343  -3.161  1.00  0.00    -0.002 A   
ATOM     18  C8  UNL     1      -1.222   0.444  -3.299  1.00  0.00     0.012 A   
ATOM     19  C12 UNL     1       0.998   1.384  -3.644  1.00  0.00     0.045 A   
ATOM     20  C9  UNL     1      -1.813   1.574  -3.877  1.00  0.00     0.037 A   
ATOM     21  C11 UNL     1       0.383   2.490  -4.200  1.00  0.00     0.109 A   
ATOM     22  C10 UNL     1      -0.983   2.585  -4.311  1.00  0.00     0.108 A   
ATOM     23  O1  UNL     1       1.018   3.576  -4.711  1.00  0.00    -0.316 OA  
ATOM     24  O2  UNL     1      -1.377   3.736  -4.916  1.00  0.00    -0.316 OA  
ATOM     25  C13 UNL     1      -0.107   4.395  -5.102  1.00  0.00     0.337 C   
ENDBRANCH  16  17
ENDBRANCH  13  16
ENDBRANCH   8  13
ENDBRANCH   3   8
ENDBRANCH   1   2
BRANCH   1  26
ATOM     26  C17 UNL     1       1.527  -3.595   4.516  1.00  0.00     0.026 C   
BRANCH  26  27
ATOM     27  C18 UNL     1       0.007  -3.366   4.576  1.00  0.00     0.037 C   
BRANCH  27  28
ATOM     28  C19 UNL     1      -0.643  -2.977   3.271  1.00  0.00    -0.048 A   
ATOM     29  C20 UNL     1      -0.488  -3.780   2.127  1.00  0.00     0.005 A   
ATOM     30  C24 UNL     1      -1.396  -1.799   3.173  1.00  0.00     0.005 A   
ATOM     31  C21 UNL     1      -1.018  -3.382   0.899  1.00  0.00     0.023 A   
ATOM     32  C23 UNL     1      -1.924  -1.402   1.944  1.00  0.00     0.023 A   
ATOM     33  C22 UNL     1      -1.757  -2.200   0.804  1.00  0.00     0.023 A   
BRANCH  33  34
ATOM     34  N3  UNL     1      -2.105  -1.688  -0.466  1.00  0.00    -0.358 N   
ATOM     35  H29 UNL     1      -2.926  -1.075  -0.372  1.00  0.00     0.143 HD  
ATOM     36  H30 UNL     1      -2.374  -2.467  -1.083  1.00  0.00     0.143 HD  
ENDBRANCH  33  34
ENDBRANCH  27  28
ENDBRANCH  26  27
ENDBRANCH   1  26
TORSDOF 11
