REMARK SMILES CCc1n[nH]c(C2CC2)c1Cn1cc([C@@H]([NH2+]Cc2ccc3c(c2)OCO3)C(C)C)nn1
REMARK SMILES IDX 12 1 13 2 14 3 30 4 31 5 11 7 10 8 3 9 4 10 5 11 6 12 2 14
REMARK SMILES IDX 1 15 7 16 8 17 9 18 15 19 16 20 17 23 18 24 19 25 23 26
REMARK SMILES IDX 20 27 22 28 21 29 24 30 26 31 25 32 27 33 28 34 29 35
REMARK H PARENT 13 6 5 13 16 21 16 22
ROOT
ATOM     1   N3  UNL     1      -2.125  -1.500   1.896  1.00  0.00    -0.208 N   
ATOM     2   C10 UNL     1      -2.159  -1.072   0.597  1.00  0.00     0.046 A   
ATOM     3   C11 UNL     1      -1.550  -2.090  -0.102  1.00  0.00     0.127 A   
ATOM     4   N5  UNL     1      -1.248  -3.111   0.759  1.00  0.00    -0.132 NA  
ATOM     5   N6  UNL     1      -1.617  -2.746   1.976  1.00  0.00    -0.076 NA  
ATOM     6   H14 UNL     1      -2.512  -0.088   0.321  1.00  0.00     0.083 HD  
ENDROOT
BRANCH   1   7
ATOM     7   C9  UNL     1      -2.402  -0.724   3.096  1.00  0.00     0.173 C   
BRANCH   7   8
ATOM     8   C8  UNL     1      -1.277   0.225   3.335  1.00  0.00     0.014 A   
ATOM     9   C3  UNL     1      -0.012  -0.058   3.937  1.00  0.00     0.065 A   
ATOM     10  N1  UNL     1       0.796   1.009   3.917  1.00  0.00    -0.189 NA  
ATOM     11  N2  UNL     1       0.053   1.982   3.374  1.00  0.00    -0.242 N   
ATOM     12  C4  UNL     1      -1.189   1.562   3.004  1.00  0.00     0.035 A   
ATOM     13  H6  UNL     1       0.461   2.906   3.272  1.00  0.00     0.175 HD  
BRANCH   9  14
ATOM     14  C2  UNL     1       0.483  -1.338   4.532  1.00  0.00     0.055 C   
ATOM     15  C1  UNL     1       1.539  -2.015   3.672  1.00  0.00     0.011 C   
ENDBRANCH   9  14
BRANCH  12  16
ATOM     16  C5  UNL     1      -2.251   2.444   2.307  1.00  0.00     0.036 C   
ATOM     17  C6  UNL     1      -2.583   3.785   2.906  1.00  0.00     0.010 C   
ATOM     18  C7  UNL     1      -3.579   2.666   2.978  1.00  0.00     0.010 C   
ENDBRANCH  12  16
ENDBRANCH   7   8
ENDBRANCH   1   7
BRANCH   3  19
ATOM     19  C12 UNL     1      -1.090  -2.144  -1.521  1.00  0.00     0.117 C   
BRANCH  19  20
ATOM     20  N4  UNL     1       0.319  -2.685  -1.615  1.00  0.00     0.249 N   
ATOM     21  H16 UNL     1       0.302  -3.627  -1.202  1.00  0.00     0.199 HD  
ATOM     22  H17 UNL     1       0.598  -2.783  -2.594  1.00  0.00     0.199 HD  
BRANCH  20  23
ATOM     23  C13 UNL     1       1.381  -1.924  -0.879  1.00  0.00     0.164 C   
BRANCH  23  24
ATOM     24  C14 UNL     1       1.455  -0.467  -1.243  1.00  0.00    -0.002 A   
ATOM     25  C15 UNL     1       1.853  -0.064  -2.539  1.00  0.00     0.012 A   
ATOM     26  C19 UNL     1       1.100   0.510  -0.293  1.00  0.00     0.045 A   
ATOM     27  C16 UNL     1       1.882   1.290  -2.892  1.00  0.00     0.037 A   
ATOM     28  C18 UNL     1       1.136   1.835  -0.673  1.00  0.00     0.109 A   
ATOM     29  C17 UNL     1       1.514   2.213  -1.938  1.00  0.00     0.108 A   
ATOM     30  O1  UNL     1       0.809   2.896   0.111  1.00  0.00    -0.316 OA  
ATOM     31  O2  UNL     1       1.479   3.560  -2.108  1.00  0.00    -0.316 OA  
ATOM     32  C20 UNL     1       1.077   3.994  -0.792  1.00  0.00     0.337 C   
ENDBRANCH  23  24
ENDBRANCH  20  23
ENDBRANCH  19  20
BRANCH  19  33
ATOM     33  C21 UNL     1      -2.049  -2.956  -2.433  1.00  0.00     0.037 C   
ATOM     34  C22 UNL     1      -1.757  -2.708  -3.918  1.00  0.00     0.014 C   
ATOM     35  C23 UNL     1      -2.060  -4.465  -2.162  1.00  0.00     0.014 C   
ENDBRANCH  19  33
ENDBRANCH   3  19
TORSDOF 9
