REMARK SMILES CC(C)(C)[C@H]([NH2+]Cc1ccc2c(c1)OCO2)c1cn(Cc2cccc3cn[nH]c23)nn1
REMARK SMILES IDX 17 1 18 2 19 3 30 4 31 5 5 7 2 8 1 9 3 10 4 11 6 12 7 15
REMARK SMILES IDX 8 16 9 17 13 18 10 19 12 20 11 21 14 22 16 23 15 24 20 25
REMARK SMILES IDX 21 26 22 27 29 28 23 29 25 30 28 31 24 32 26 33 27 34
REMARK H PARENT 18 6 6 13 6 14 28 35
ROOT
ATOM     1   C14 UNL     1       1.055   1.281  -1.331  1.00  0.00     0.127 A   
ATOM     2   C15 UNL     1       0.198   2.341  -1.124  1.00  0.00     0.046 A   
ATOM     3   N2  UNL     1      -0.659   2.288  -2.191  1.00  0.00    -0.208 N   
ATOM     4   N5  UNL     1      -0.318   1.286  -3.029  1.00  0.00    -0.076 NA  
ATOM     5   N6  UNL     1       0.724   0.659  -2.507  1.00  0.00    -0.132 NA  
ATOM     6   H20 UNL     1       0.071   3.047  -0.315  1.00  0.00     0.083 HD  
ENDROOT
BRANCH   1   7
ATOM     7   C5  UNL     1       2.114   0.693  -0.446  1.00  0.00     0.120 C   
BRANCH   7   8
ATOM     8   C2  UNL     1       3.579   1.100  -0.839  1.00  0.00     0.010 C   
ATOM     9   C1  UNL     1       3.709   2.640  -0.864  1.00  0.00     0.017 C   
ATOM     10  C3  UNL     1       4.007   0.555  -2.215  1.00  0.00     0.017 C   
ATOM     11  C4  UNL     1       4.581   0.581   0.219  1.00  0.00     0.017 C   
ENDBRANCH   7   8
BRANCH   7  12
ATOM     12  N1  UNL     1       1.971  -0.819  -0.427  1.00  0.00     0.250 N   
ATOM     13  H11 UNL     1       1.972  -1.129  -1.409  1.00  0.00     0.199 HD  
ATOM     14  H12 UNL     1       2.773  -1.257   0.030  1.00  0.00     0.199 HD  
BRANCH  12  15
ATOM     15  C6  UNL     1       0.722  -1.365   0.196  1.00  0.00     0.164 C   
BRANCH  15  16
ATOM     16  C7  UNL     1       0.590  -1.022   1.653  1.00  0.00    -0.002 A   
ATOM     17  C8  UNL     1      -0.428  -0.137   2.083  1.00  0.00     0.012 A   
ATOM     18  C12 UNL     1       1.486  -1.555   2.596  1.00  0.00     0.045 A   
ATOM     19  C9  UNL     1      -0.548   0.223   3.429  1.00  0.00     0.037 A   
ATOM     20  C11 UNL     1       1.341  -1.178   3.915  1.00  0.00     0.109 A   
ATOM     21  C10 UNL     1       0.354  -0.313   4.320  1.00  0.00     0.108 A   
ATOM     22  O1  UNL     1       2.124  -1.592   4.944  1.00  0.00    -0.316 OA  
ATOM     23  O2  UNL     1       0.391  -0.075   5.657  1.00  0.00    -0.316 OA  
ATOM     24  C13 UNL     1       1.496  -0.915   6.057  1.00  0.00     0.337 C   
ENDBRANCH  15  16
ENDBRANCH  12  15
ENDBRANCH   7  12
ENDBRANCH   1   7
BRANCH   3  25
ATOM     25  C16 UNL     1      -1.950   2.951  -2.331  1.00  0.00     0.171 C   
BRANCH  25  26
ATOM     26  C17 UNL     1      -2.953   2.366  -1.360  1.00  0.00    -0.005 A   
ATOM     27  C18 UNL     1      -3.797   3.214  -0.615  1.00  0.00     0.007 A   
ATOM     28  C23 UNL     1      -3.127   0.985  -1.126  1.00  0.00     0.061 A   
ATOM     29  C19 UNL     1      -4.709   2.715   0.319  1.00  0.00     0.001 A   
ATOM     30  C21 UNL     1      -3.999   0.466  -0.175  1.00  0.00     0.017 A   
ATOM     31  N4  UNL     1      -2.550  -0.121  -1.706  1.00  0.00    -0.238 N   
ATOM     32  C20 UNL     1      -4.815   1.341   0.558  1.00  0.00     0.012 A   
ATOM     33  C22 UNL     1      -3.777  -0.930  -0.208  1.00  0.00     0.141 A   
ATOM     34  N3  UNL     1      -2.822  -1.277  -1.077  1.00  0.00    -0.192 NA  
ATOM     35  H27 UNL     1      -1.899  -0.133  -2.489  1.00  0.00     0.176 HD  
ENDBRANCH  25  26
ENDBRANCH   3  25
TORSDOF 7
