REMARK SMILES Cc1ccccc1[C@H](CO)n1cc([C@@H]([NH2+]Cc2ccc3c(c2)OCO3)C2CCCCC2)nn1
REMARK SMILES IDX 11 1 12 2 13 3 32 4 33 5 8 7 7 8 2 9 3 10 4 11 6 12 5 13
REMARK SMILES IDX 1 14 9 15 10 16 14 18 15 19 16 22 17 23 18 24 22 25 19 26
REMARK SMILES IDX 21 27 20 28 23 29 25 30 24 31 26 32 27 33 31 34 28 35 30 36
REMARK SMILES IDX 29 37
REMARK H PARENT 12 6 10 17 15 20 15 21
ROOT
ATOM     1   N1  UNL     1      -0.534   2.379  -0.581  1.00  0.00    -0.202 N   
ATOM     2   C10 UNL     1      -0.551   1.283   0.243  1.00  0.00     0.046 A   
ATOM     3   C11 UNL     1       0.680   0.697   0.051  1.00  0.00     0.127 A   
ATOM     4   N3  UNL     1       1.379   1.416  -0.884  1.00  0.00    -0.132 NA  
ATOM     5   N4  UNL     1       0.632   2.439  -1.262  1.00  0.00    -0.075 NA  
ATOM     6   H12 UNL     1      -1.402   1.041   0.864  1.00  0.00     0.083 HD  
ENDROOT
BRANCH   1   7
ATOM     7   C8  UNL     1      -1.594   3.375  -0.767  1.00  0.00     0.155 C   
BRANCH   7   8
ATOM     8   C7  UNL     1      -2.320   3.138  -2.089  1.00  0.00    -0.020 A   
ATOM     9   C2  UNL     1      -3.623   2.590  -2.143  1.00  0.00    -0.046 A   
ATOM     10  C3  UNL     1      -4.241   2.399  -3.392  1.00  0.00     0.004 A   
ATOM     11  C4  UNL     1      -3.589   2.735  -4.576  1.00  0.00     0.000 A   
ATOM     12  C6  UNL     1      -1.680   3.468  -3.303  1.00  0.00     0.006 A   
ATOM     13  C5  UNL     1      -2.308   3.269  -4.532  1.00  0.00     0.000 A   
ATOM     14  C1  UNL     1      -4.397   2.217  -0.906  1.00  0.00     0.045 C   
ENDBRANCH   7   8
BRANCH   7  15
ATOM     15  C9  UNL     1      -1.070   4.813  -0.599  1.00  0.00     0.185 C   
BRANCH  15  16
ATOM     16  O1  UNL     1      -0.764   5.066   0.776  1.00  0.00    -0.394 OA  
ATOM     17  H11 UNL     1      -0.434   5.982   0.829  1.00  0.00     0.210 HD  
ENDBRANCH  15  16
ENDBRANCH   7  15
ENDBRANCH   1   7
BRANCH   3  18
ATOM     18  C12 UNL     1       1.281  -0.555   0.612  1.00  0.00     0.117 C   
BRANCH  18  19
ATOM     19  N2  UNL     1       2.150  -1.161  -0.469  1.00  0.00     0.249 N   
ATOM     20  H14 UNL     1       1.581  -1.156  -1.326  1.00  0.00     0.199 HD  
ATOM     21  H15 UNL     1       2.897  -0.487  -0.683  1.00  0.00     0.199 HD  
BRANCH  19  22
ATOM     22  C13 UNL     1       2.700  -2.525  -0.278  1.00  0.00     0.164 C   
BRANCH  22  23
ATOM     23  C14 UNL     1       1.633  -3.574  -0.126  1.00  0.00    -0.002 A   
ATOM     24  C15 UNL     1       1.405  -4.187   1.129  1.00  0.00     0.012 A   
ATOM     25  C19 UNL     1       0.832  -3.930  -1.226  1.00  0.00     0.045 A   
ATOM     26  C16 UNL     1       0.389  -5.137   1.291  1.00  0.00     0.037 A   
ATOM     27  C18 UNL     1      -0.160  -4.869  -1.031  1.00  0.00     0.109 A   
ATOM     28  C17 UNL     1      -0.377  -5.454   0.192  1.00  0.00     0.108 A   
ATOM     29  O2  UNL     1      -1.022  -5.316  -1.981  1.00  0.00    -0.316 OA  
ATOM     30  O3  UNL     1      -1.402  -6.344   0.165  1.00  0.00    -0.316 OA  
ATOM     31  C20 UNL     1      -1.784  -6.285  -1.226  1.00  0.00     0.337 C   
ENDBRANCH  22  23
ENDBRANCH  19  22
ENDBRANCH  18  19
BRANCH  18  32
ATOM     32  C21 UNL     1       2.088  -0.341   1.920  1.00  0.00     0.043 C   
ATOM     33  C22 UNL     1       1.174   0.107   3.079  1.00  0.00     0.010 C   
ATOM     34  C26 UNL     1       3.281   0.626   1.781  1.00  0.00     0.010 C   
ATOM     35  C23 UNL     1       1.947   0.243   4.388  1.00  0.00     0.001 C   
ATOM     36  C25 UNL     1       4.045   0.775   3.097  1.00  0.00     0.001 C   
ATOM     37  C24 UNL     1       3.129   1.195   4.241  1.00  0.00     0.000 C   
ENDBRANCH  18  32
ENDBRANCH   3  18
TORSDOF 9
