REMARK SMILES Cc1ccccc1[C@@H](CO)n1cc([C@@H]([NH2+]Cc2ccc3c(c2)OCO3)C2CCCCC2)nn1
REMARK SMILES IDX 11 1 12 2 13 3 32 4 33 5 8 7 7 8 2 9 3 10 4 11 6 12 5 13
REMARK SMILES IDX 1 14 9 15 10 16 14 18 15 19 16 22 17 23 18 24 22 25 19 26
REMARK SMILES IDX 21 27 20 28 23 29 25 30 24 31 26 32 27 33 31 34 28 35 30 36
REMARK SMILES IDX 29 37
REMARK H PARENT 12 6 10 17 15 20 15 21
ROOT
ATOM     1   N1  UNL     1       1.961  -1.077   0.997  1.00  0.00    -0.202 N   
ATOM     2   C10 UNL     1       1.385  -0.762  -0.210  1.00  0.00     0.046 A   
ATOM     3   C11 UNL     1       0.138  -1.339  -0.152  1.00  0.00     0.127 A   
ATOM     4   N3  UNL     1       0.014  -2.018   1.034  1.00  0.00    -0.132 NA  
ATOM     5   N4  UNL     1       1.130  -1.855   1.722  1.00  0.00    -0.075 NA  
ATOM     6   H12 UNL     1       1.898  -0.161  -0.949  1.00  0.00     0.083 HD  
ENDROOT
BRANCH   1   7
ATOM     7   C8  UNL     1       3.284  -0.670   1.475  1.00  0.00     0.155 C   
BRANCH   7   8
ATOM     8   C7  UNL     1       3.344   0.837   1.732  1.00  0.00    -0.020 A   
ATOM     9   C2  UNL     1       2.497   1.543   2.617  1.00  0.00    -0.046 A   
ATOM     10  C3  UNL     1       2.648   2.938   2.743  1.00  0.00     0.004 A   
ATOM     11  C4  UNL     1       3.632   3.628   2.039  1.00  0.00     0.000 A   
ATOM     12  C6  UNL     1       4.342   1.559   1.038  1.00  0.00     0.006 A   
ATOM     13  C5  UNL     1       4.484   2.938   1.190  1.00  0.00     0.000 A   
ATOM     14  C1  UNL     1       1.392   0.901   3.414  1.00  0.00     0.045 C   
ENDBRANCH   7   8
BRANCH   7  15
ATOM     15  C9  UNL     1       3.843  -1.502   2.643  1.00  0.00     0.185 C   
BRANCH  15  16
ATOM     16  O1  UNL     1       4.314  -2.766   2.162  1.00  0.00    -0.394 OA  
ATOM     17  H11 UNL     1       4.631  -3.264   2.938  1.00  0.00     0.210 HD  
ENDBRANCH  15  16
ENDBRANCH   7  15
ENDBRANCH   1   7
BRANCH   3  18
ATOM     18  C12 UNL     1      -0.987  -1.383  -1.137  1.00  0.00     0.117 C   
BRANCH  18  19
ATOM     19  N2  UNL     1      -1.877  -2.569  -0.808  1.00  0.00     0.249 N   
ATOM     20  H14 UNL     1      -1.389  -3.090  -0.059  1.00  0.00     0.199 HD  
ATOM     21  H15 UNL     1      -2.746  -2.252  -0.370  1.00  0.00     0.199 HD  
BRANCH  19  22
ATOM     22  C13 UNL     1      -2.178  -3.509  -1.918  1.00  0.00     0.164 C   
BRANCH  22  23
ATOM     23  C14 UNL     1      -3.108  -2.916  -2.938  1.00  0.00    -0.002 A   
ATOM     24  C15 UNL     1      -4.495  -2.815  -2.667  1.00  0.00     0.012 A   
ATOM     25  C19 UNL     1      -2.603  -2.408  -4.148  1.00  0.00     0.045 A   
ATOM     26  C16 UNL     1      -5.364  -2.209  -3.581  1.00  0.00     0.037 A   
ATOM     27  C18 UNL     1      -3.487  -1.813  -5.024  1.00  0.00     0.109 A   
ATOM     28  C17 UNL     1      -4.828  -1.715  -4.749  1.00  0.00     0.108 A   
ATOM     29  O2  UNL     1      -3.160  -1.260  -6.221  1.00  0.00    -0.316 OA  
ATOM     30  O3  UNL     1      -5.516  -1.092  -5.739  1.00  0.00    -0.316 OA  
ATOM     31  C20 UNL     1      -4.459  -0.826  -6.686  1.00  0.00     0.337 C   
ENDBRANCH  22  23
ENDBRANCH  19  22
ENDBRANCH  18  19
BRANCH  18  32
ATOM     32  C21 UNL     1      -1.850  -0.095  -1.189  1.00  0.00     0.043 C   
ATOM     33  C22 UNL     1      -1.104   1.057  -1.891  1.00  0.00     0.010 C   
ATOM     34  C26 UNL     1      -2.372   0.375   0.185  1.00  0.00     0.010 C   
ATOM     35  C23 UNL     1      -1.986   2.297  -2.023  1.00  0.00     0.001 C   
ATOM     36  C25 UNL     1      -3.251   1.618   0.052  1.00  0.00     0.001 C   
ATOM     37  C24 UNL     1      -2.524   2.749  -0.670  1.00  0.00     0.000 C   
ENDBRANCH  18  32
ENDBRANCH   3  18
TORSDOF 9
