REMARK SMILES CC(C)n1nccc1CCn1cc([C@@H]([NH2+]Cc2ccc3c(c2)OCO3)C2CCCCC2)nn1
REMARK SMILES IDX 11 1 12 2 13 3 32 4 33 5 10 7 9 8 8 9 4 10 5 11 6 12 7 13
REMARK SMILES IDX 2 14 1 15 3 16 14 17 15 18 16 21 17 22 18 23 22 24 19 25
REMARK SMILES IDX 21 26 20 27 23 28 25 29 24 30 26 31 27 32 31 33 28 34 30 35
REMARK SMILES IDX 29 36
REMARK H PARENT 12 6 15 19 15 20
ROOT
ATOM     1   N3  UNL     1       0.067  -0.499   1.974  1.00  0.00    -0.212 N   
ATOM     2   C9  UNL     1       0.606   0.420   1.117  1.00  0.00     0.045 A   
ATOM     3   C10 UNL     1      -0.487   1.096   0.627  1.00  0.00     0.127 A   
ATOM     4   N5  UNL     1      -1.626   0.573   1.187  1.00  0.00    -0.132 NA  
ATOM     5   N6  UNL     1      -1.276  -0.408   2.002  1.00  0.00    -0.076 NA  
ATOM     6   H14 UNL     1       1.671   0.498   0.945  1.00  0.00     0.083 HD  
ENDROOT
BRANCH   1   7
ATOM     7   C8  UNL     1       0.764  -1.411   2.856  1.00  0.00     0.140 C   
BRANCH   7   8
ATOM     8   C7  UNL     1       0.846  -2.845   2.331  1.00  0.00     0.074 C   
BRANCH   8   9
ATOM     9   C6  UNL     1       1.714  -2.969   1.120  1.00  0.00     0.032 A   
ATOM     10  N1  UNL     1       3.070  -3.223   1.103  1.00  0.00    -0.227 N   
ATOM     11  N2  UNL     1       3.587  -3.138  -0.142  1.00  0.00    -0.190 NA  
ATOM     12  C4  UNL     1       2.527  -3.001  -0.937  1.00  0.00     0.133 A   
ATOM     13  C5  UNL     1       1.338  -2.886  -0.208  1.00  0.00     0.043 A   
BRANCH  10  14
ATOM     14  C2  UNL     1       3.985  -3.627   2.172  1.00  0.00     0.092 C   
ATOM     15  C1  UNL     1       3.683  -5.034   2.689  1.00  0.00     0.030 C   
ATOM     16  C3  UNL     1       4.102  -2.610   3.303  1.00  0.00     0.030 C   
ENDBRANCH  10  14
ENDBRANCH   8   9
ENDBRANCH   7   8
ENDBRANCH   1   7
BRANCH   3  17
ATOM     17  C11 UNL     1      -0.602   2.226  -0.347  1.00  0.00     0.117 C   
BRANCH  17  18
ATOM     18  N4  UNL     1      -2.040   2.353  -0.805  1.00  0.00     0.249 N   
ATOM     19  H16 UNL     1      -2.583   1.730  -0.186  1.00  0.00     0.199 HD  
ATOM     20  H17 UNL     1      -2.409   3.290  -0.627  1.00  0.00     0.199 HD  
BRANCH  18  21
ATOM     21  C12 UNL     1      -2.328   1.964  -2.211  1.00  0.00     0.164 C   
BRANCH  21  22
ATOM     22  C13 UNL     1      -1.984   0.538  -2.539  1.00  0.00    -0.002 A   
ATOM     23  C14 UNL     1      -2.706  -0.532  -1.957  1.00  0.00     0.012 A   
ATOM     24  C18 UNL     1      -0.928   0.254  -3.421  1.00  0.00     0.045 A   
ATOM     25  C15 UNL     1      -2.382  -1.864  -2.245  1.00  0.00     0.037 A   
ATOM     26  C17 UNL     1      -0.635  -1.068  -3.687  1.00  0.00     0.109 A   
ATOM     27  C16 UNL     1      -1.343  -2.098  -3.116  1.00  0.00     0.108 A   
ATOM     28  O1  UNL     1       0.354  -1.509  -4.507  1.00  0.00    -0.316 OA  
ATOM     29  O2  UNL     1      -0.884  -3.315  -3.501  1.00  0.00    -0.316 OA  
ATOM     30  C19 UNL     1       0.130  -2.938  -4.457  1.00  0.00     0.337 C   
ENDBRANCH  21  22
ENDBRANCH  18  21
ENDBRANCH  17  18
BRANCH  17  31
ATOM     31  C20 UNL     1      -0.088   3.570   0.236  1.00  0.00     0.043 C   
ATOM     32  C21 UNL     1      -0.025   4.669  -0.844  1.00  0.00     0.010 C   
ATOM     33  C25 UNL     1      -0.874   4.065   1.467  1.00  0.00     0.010 C   
ATOM     34  C22 UNL     1       0.543   5.974  -0.289  1.00  0.00     0.001 C   
ATOM     35  C24 UNL     1      -0.303   5.377   2.007  1.00  0.00     0.001 C   
ATOM     36  C23 UNL     1      -0.242   6.451   0.926  1.00  0.00     0.000 C   
ENDBRANCH  17  31
ENDBRANCH   3  17
TORSDOF 9
