REMARK SMILES CC(C)[C@H]([NH2+]Cc1ccc2c(c1)OCO2)c1cn(CCn2ccccc2=O)nn1
REMARK SMILES IDX 16 1 17 2 18 3 28 4 29 5 4 7 2 8 1 9 3 10 5 11 6 14 7 15
REMARK SMILES IDX 8 16 12 17 9 18 11 19 10 20 13 21 15 22 14 23 19 24 20 25
REMARK SMILES IDX 21 26 22 27 26 28 23 29 25 30 24 31 27 32
REMARK H PARENT 17 6 5 12 5 13
ROOT
ATOM     1   C13 UNL     1      -0.088  -0.576  -2.738  1.00  0.00     0.127 A   
ATOM     2   C14 UNL     1       0.562  -1.744  -2.402  1.00  0.00     0.045 A   
ATOM     3   N2  UNL     1      -0.447  -2.542  -1.949  1.00  0.00    -0.211 N   
ATOM     4   N4  UNL     1      -1.651  -2.014  -2.235  1.00  0.00    -0.076 NA  
ATOM     5   N5  UNL     1      -1.440  -0.802  -2.721  1.00  0.00    -0.132 NA  
ATOM     6   H18 UNL     1       1.601  -2.004  -2.255  1.00  0.00     0.083 HD  
ENDROOT
BRANCH   1   7
ATOM     7   C4  UNL     1       0.402   0.830  -2.874  1.00  0.00     0.117 C   
BRANCH   7   8
ATOM     8   C2  UNL     1       1.850   0.967  -3.415  1.00  0.00     0.037 C   
ATOM     9   C1  UNL     1       2.957   0.767  -2.372  1.00  0.00     0.014 C   
ATOM     10  C3  UNL     1       2.049   2.333  -4.083  1.00  0.00     0.014 C   
ENDBRANCH   7   8
BRANCH   7  11
ATOM     11  N1  UNL     1       0.267   1.545  -1.553  1.00  0.00     0.249 N   
ATOM     12  H9  UNL     1       0.659   0.924  -0.815  1.00  0.00     0.199 HD  
ATOM     13  H10 UNL     1       0.809   2.412  -1.538  1.00  0.00     0.199 HD  
BRANCH  11  14
ATOM     14  C5  UNL     1      -1.132   1.847  -1.122  1.00  0.00     0.164 C   
BRANCH  14  15
ATOM     15  C6  UNL     1      -1.140   2.841   0.010  1.00  0.00    -0.002 A   
ATOM     16  C7  UNL     1      -1.514   4.186  -0.217  1.00  0.00     0.012 A   
ATOM     17  C11 UNL     1      -0.742   2.442   1.300  1.00  0.00     0.045 A   
ATOM     18  C8  UNL     1      -1.499   5.121   0.825  1.00  0.00     0.037 A   
ATOM     19  C10 UNL     1      -0.728   3.390   2.301  1.00  0.00     0.109 A   
ATOM     20  C9  UNL     1      -1.097   4.692   2.071  1.00  0.00     0.108 A   
ATOM     21  O1  UNL     1      -0.357   3.173   3.590  1.00  0.00    -0.316 OA  
ATOM     22  O2  UNL     1      -1.014   5.459   3.188  1.00  0.00    -0.316 OA  
ATOM     23  C12 UNL     1      -0.535   4.494   4.150  1.00  0.00     0.337 C   
ENDBRANCH  14  15
ENDBRANCH  11  14
ENDBRANCH   7  11
ENDBRANCH   1   7
BRANCH   3  24
ATOM     24  C15 UNL     1      -0.342  -3.607  -0.975  1.00  0.00     0.153 C   
BRANCH  24  25
ATOM     25  C16 UNL     1      -0.371  -3.049   0.455  1.00  0.00     0.135 C   
BRANCH  25  26
ATOM     26  N3  UNL     1       0.959  -2.669   0.973  1.00  0.00    -0.273 N   
ATOM     27  C17 UNL     1       1.714  -3.655   1.598  1.00  0.00     0.078 A   
ATOM     28  C21 UNL     1       1.425  -1.354   0.864  1.00  0.00     0.242 A   
ATOM     29  C18 UNL     1       2.911  -3.386   2.136  1.00  0.00     0.016 A   
ATOM     30  C20 UNL     1       2.751  -1.072   1.485  1.00  0.00     0.069 A   
ATOM     31  C19 UNL     1       3.442  -2.052   2.080  1.00  0.00     0.007 A   
ATOM     32  O3  UNL     1       0.850  -0.428   0.285  1.00  0.00    -0.272 OA  
ENDBRANCH  25  26
ENDBRANCH  24  25
ENDBRANCH   3  24
TORSDOF 8
