REMARK SMILES COc1ccc(Cn2cc([C@@H]([NH2+]Cc3ccc4c(c3)OCO4)C(C)(C)C)nn2)nc1
REMARK SMILES IDX 8 1 9 2 10 3 27 4 28 5 7 7 6 8 3 9 4 10 30 11 5 12 29 13
REMARK SMILES IDX 2 14 1 15 11 16 12 17 13 20 14 21 15 22 19 23 16 24 18 25
REMARK SMILES IDX 17 26 20 27 22 28 21 29 23 30 24 31 25 32 26 33
REMARK H PARENT 9 6 12 18 12 19
ROOT
ATOM     1   N1  UNL     1       2.228  -0.101  -1.764  1.00  0.00    -0.206 N   
ATOM     2   C7  UNL     1       1.242  -1.036  -1.927  1.00  0.00     0.046 A   
ATOM     3   C8  UNL     1       0.275  -0.378  -2.651  1.00  0.00     0.127 A   
ATOM     4   N3  UNL     1       0.688   0.911  -2.886  1.00  0.00    -0.132 NA  
ATOM     5   N4  UNL     1       1.883   1.068  -2.342  1.00  0.00    -0.076 NA  
ATOM     6   H8  UNL     1       1.322  -2.033  -1.513  1.00  0.00     0.083 HD  
ENDROOT
BRANCH   1   7
ATOM     7   C6  UNL     1       3.515  -0.259  -1.115  1.00  0.00     0.190 C   
BRANCH   7   8
ATOM     8   C5  UNL     1       3.352  -0.258   0.380  1.00  0.00     0.060 A   
ATOM     9   C2  UNL     1       3.048  -0.325   3.126  1.00  0.00     0.093 A   
ATOM     10  C3  UNL     1       3.148   0.901   2.480  1.00  0.00     0.037 A   
ATOM     11  C22 UNL     1       3.100  -1.467   2.335  1.00  0.00     0.144 A   
ATOM     12  C4  UNL     1       3.303   0.940   1.092  1.00  0.00     0.028 A   
ATOM     13  N5  UNL     1       3.237  -1.465   0.985  1.00  0.00    -0.257 NA  
BRANCH   9  14
ATOM     14  O1  UNL     1       2.886  -0.530   4.465  1.00  0.00    -0.348 OA  
ATOM     15  C1  UNL     1       2.860   0.629   5.292  1.00  0.00     0.203 C   
ENDBRANCH   9  14
ENDBRANCH   7   8
ENDBRANCH   1   7
BRANCH   3  16
ATOM     16  C9  UNL     1      -1.086  -0.805  -3.111  1.00  0.00     0.120 C   
BRANCH  16  17
ATOM     17  N2  UNL     1      -2.007   0.401  -3.035  1.00  0.00     0.250 N   
ATOM     18  H10 UNL     1      -2.559   0.507  -3.889  1.00  0.00     0.199 HD  
ATOM     19  H11 UNL     1      -1.384   1.226  -3.014  1.00  0.00     0.199 HD  
BRANCH  17  20
ATOM     20  C10 UNL     1      -2.915   0.468  -1.856  1.00  0.00     0.164 C   
BRANCH  20  21
ATOM     21  C11 UNL     1      -2.205   0.545  -0.533  1.00  0.00    -0.002 A   
ATOM     22  C12 UNL     1      -1.445   1.689  -0.189  1.00  0.00     0.012 A   
ATOM     23  C16 UNL     1      -2.280  -0.529   0.371  1.00  0.00     0.045 A   
ATOM     24  C13 UNL     1      -0.765   1.763   1.032  1.00  0.00     0.037 A   
ATOM     25  C15 UNL     1      -1.601  -0.423   1.567  1.00  0.00     0.109 A   
ATOM     26  C14 UNL     1      -0.866   0.690   1.890  1.00  0.00     0.108 A   
ATOM     27  O2  UNL     1      -1.573  -1.367   2.545  1.00  0.00    -0.316 OA  
ATOM     28  O3  UNL     1      -0.288   0.592   3.115  1.00  0.00    -0.316 OA  
ATOM     29  C17 UNL     1      -0.739  -0.716   3.529  1.00  0.00     0.337 C   
ENDBRANCH  20  21
ENDBRANCH  17  20
ENDBRANCH  16  17
BRANCH  16  30
ATOM     30  C18 UNL     1      -1.114  -1.428  -4.550  1.00  0.00     0.010 C   
ATOM     31  C19 UNL     1      -2.540  -1.924  -4.887  1.00  0.00     0.017 C   
ATOM     32  C20 UNL     1      -0.669  -0.434  -5.642  1.00  0.00     0.017 C   
ATOM     33  C21 UNL     1      -0.184  -2.662  -4.613  1.00  0.00     0.017 C   
ENDBRANCH  16  30
ENDBRANCH   3  16
TORSDOF 8
