REMARK SMILES CC(C)C[C@H]([NH2+]Cc1ccc2c(c1)OCO2)c1cn(CCc2ccc(Cl)nc2)nn1
REMARK SMILES IDX 17 1 18 2 19 3 29 4 30 5 5 7 4 8 2 9 1 10 3 11 6 12 7 15
REMARK SMILES IDX 8 16 9 17 13 18 10 19 12 20 11 21 14 22 16 23 15 24 20 25
REMARK SMILES IDX 21 26 22 27 23 28 28 29 24 30 27 31 25 32 26 33
REMARK H PARENT 18 6 6 13 6 14
ROOT
ATOM     1   C14 UNL     1       0.843  -0.079  -1.465  1.00  0.00     0.127 A   
ATOM     2   C15 UNL     1      -0.394   0.508  -1.623  1.00  0.00     0.045 A   
ATOM     3   N2  UNL     1      -0.959  -0.189  -2.654  1.00  0.00    -0.212 N   
ATOM     4   N4  UNL     1      -0.113  -1.123  -3.124  1.00  0.00    -0.076 NA  
ATOM     5   N5  UNL     1       0.989  -1.077  -2.393  1.00  0.00    -0.132 NA  
ATOM     6   H20 UNL     1      -0.916   1.293  -1.095  1.00  0.00     0.083 HD  
ENDROOT
BRANCH   1   7
ATOM     7   C5  UNL     1       1.909   0.144  -0.445  1.00  0.00     0.114 C   
BRANCH   7   8
ATOM     8   C4  UNL     1       3.200   0.724  -1.054  1.00  0.00     0.064 C   
BRANCH   8   9
ATOM     9   C2  UNL     1       3.047   2.115  -1.706  1.00  0.00    -0.012 C   
ATOM     10  C1  UNL     1       4.378   2.540  -2.333  1.00  0.00     0.007 C   
ATOM     11  C3  UNL     1       2.584   3.179  -0.709  1.00  0.00     0.007 C   
ENDBRANCH   8   9
ENDBRANCH   7   8
BRANCH   7  12
ATOM     12  N1  UNL     1       2.284  -1.170   0.213  1.00  0.00     0.249 N   
ATOM     13  H11 UNL     1       3.127  -1.049   0.781  1.00  0.00     0.199 HD  
ATOM     14  H12 UNL     1       2.517  -1.822  -0.548  1.00  0.00     0.199 HD  
BRANCH  12  15
ATOM     15  C6  UNL     1       1.228  -1.820   1.050  1.00  0.00     0.164 C   
BRANCH  15  16
ATOM     16  C7  UNL     1       0.879  -1.018   2.273  1.00  0.00    -0.002 A   
ATOM     17  C8  UNL     1       1.734  -1.017   3.401  1.00  0.00     0.012 A   
ATOM     18  C12 UNL     1      -0.288  -0.235   2.291  1.00  0.00     0.045 A   
ATOM     19  C9  UNL     1       1.431  -0.250   4.531  1.00  0.00     0.037 A   
ATOM     20  C11 UNL     1      -0.559   0.508   3.420  1.00  0.00     0.109 A   
ATOM     21  C10 UNL     1       0.277   0.502   4.508  1.00  0.00     0.108 A   
ATOM     22  O1  UNL     1      -1.639   1.314   3.595  1.00  0.00    -0.316 OA  
ATOM     23  O2  UNL     1      -0.173   1.302   5.510  1.00  0.00    -0.316 OA  
ATOM     24  C13 UNL     1      -1.411   1.782   4.945  1.00  0.00     0.337 C   
ENDBRANCH  15  16
ENDBRANCH  12  15
ENDBRANCH   7  12
ENDBRANCH   1   7
BRANCH   3  25
ATOM     25  C16 UNL     1      -2.323  -0.118  -3.138  1.00  0.00     0.139 C   
BRANCH  25  26
ATOM     26  C17 UNL     1      -3.128  -1.401  -2.885  1.00  0.00     0.058 C   
BRANCH  26  27
ATOM     27  C18 UNL     1      -3.178  -1.790  -1.429  1.00  0.00    -0.028 A   
ATOM     28  C19 UNL     1      -4.122  -1.251  -0.552  1.00  0.00     0.008 A   
ATOM     29  C22 UNL     1      -2.232  -2.667  -0.898  1.00  0.00     0.116 A   
ATOM     30  C20 UNL     1      -4.087  -1.602   0.796  1.00  0.00     0.041 A   
ATOM     31  N3  UNL     1      -2.139  -2.983   0.411  1.00  0.00    -0.244 NA  
ATOM     32  C21 UNL     1      -3.088  -2.462   1.218  1.00  0.00     0.129 A   
ATOM     33  CL1 UNL     1      -2.932  -2.898   2.867  1.00  0.00    -0.062 Cl  
ENDBRANCH  26  27
ENDBRANCH  25  26
ENDBRANCH   3  25
TORSDOF 9
