REMARK SMILES O[C@H](Cn1cc([C@@H]([NH2+]Cc2ccc3c(c2)OCO3)C2CCCCC2)nn1)c1cccc(Cl)c1
REMARK SMILES IDX 4 1 5 2 6 3 25 4 26 5 3 7 2 8 1 9 27 11 28 12 33 13 29 14
REMARK SMILES IDX 31 15 30 16 32 17 7 18 8 19 9 22 10 23 11 24 15 25 12 26
REMARK SMILES IDX 14 27 13 28 16 29 18 30 17 31 19 32 20 33 24 34 21 35 23 36
REMARK SMILES IDX 22 37
REMARK H PARENT 5 6 1 10 8 20 8 21
ROOT
ATOM     1   N1  UNL     1       2.397  -0.385   0.380  1.00  0.00    -0.209 N   
ATOM     2   C3  UNL     1       1.501  -0.424   1.411  1.00  0.00     0.045 A   
ATOM     3   C4  UNL     1       0.300  -0.702   0.798  1.00  0.00     0.127 A   
ATOM     4   N3  UNL     1       0.501  -0.799  -0.557  1.00  0.00    -0.132 NA  
ATOM     5   N4  UNL     1       1.786  -0.598  -0.799  1.00  0.00    -0.076 NA  
ATOM     6   H5  UNL     1       1.796  -0.252   2.438  1.00  0.00     0.083 HD  
ENDROOT
BRANCH   1   7
ATOM     7   C2  UNL     1       3.827  -0.156   0.442  1.00  0.00     0.170 C   
BRANCH   7   8
ATOM     8   C1  UNL     1       4.161   1.328   0.277  1.00  0.00     0.164 C   
BRANCH   8   9
ATOM     9   O1  UNL     1       3.730   2.052   1.437  1.00  0.00    -0.387 OA  
ATOM     10  H1  UNL     1       4.270   2.863   1.488  1.00  0.00     0.211 HD  
ENDBRANCH   8   9
BRANCH   8  11
ATOM     11  C20 UNL     1       5.645   1.557   0.076  1.00  0.00    -0.016 A   
ATOM     12  C21 UNL     1       6.123   2.072  -1.139  1.00  0.00     0.006 A   
ATOM     13  C25 UNL     1       6.569   1.264   1.093  1.00  0.00     0.027 A   
ATOM     14  C22 UNL     1       7.491   2.284  -1.335  1.00  0.00     0.002 A   
ATOM     15  C24 UNL     1       7.934   1.477   0.890  1.00  0.00     0.041 A   
ATOM     16  C23 UNL     1       8.398   1.986  -0.319  1.00  0.00     0.020 A   
ATOM     17  CL1 UNL     1       9.048   1.103   2.146  1.00  0.00    -0.084 Cl  
ENDBRANCH   8  11
ENDBRANCH   7   8
ENDBRANCH   1   7
BRANCH   3  18
ATOM     18  C5  UNL     1      -1.082  -0.845   1.347  1.00  0.00     0.117 C   
BRANCH  18  19
ATOM     19  N2  UNL     1      -2.091  -0.442   0.298  1.00  0.00     0.249 N   
ATOM     20  H7  UNL     1      -1.767  -0.847  -0.593  1.00  0.00     0.199 HD  
ATOM     21  H8  UNL     1      -3.012  -0.849   0.483  1.00  0.00     0.199 HD  
BRANCH  19  22
ATOM     22  C6  UNL     1      -2.235   1.024   0.086  1.00  0.00     0.164 C   
BRANCH  22  23
ATOM     23  C7  UNL     1      -3.226   1.299  -1.009  1.00  0.00    -0.002 A   
ATOM     24  C8  UNL     1      -4.591   1.515  -0.704  1.00  0.00     0.012 A   
ATOM     25  C12 UNL     1      -2.809   1.287  -2.352  1.00  0.00     0.045 A   
ATOM     26  C9  UNL     1      -5.529   1.726  -1.720  1.00  0.00     0.037 A   
ATOM     27  C11 UNL     1      -3.759   1.501  -3.328  1.00  0.00     0.109 A   
ATOM     28  C10 UNL     1      -5.080   1.713  -3.021  1.00  0.00     0.108 A   
ATOM     29  O2  UNL     1      -3.526   1.526  -4.666  1.00  0.00    -0.316 OA  
ATOM     30  O3  UNL     1      -5.846   1.897  -4.127  1.00  0.00    -0.316 OA  
ATOM     31  C13 UNL     1      -4.852   1.798  -5.171  1.00  0.00     0.337 C   
ENDBRANCH  22  23
ENDBRANCH  19  22
ENDBRANCH  18  19
BRANCH  18  32
ATOM     32  C14 UNL     1      -1.433  -2.276   1.837  1.00  0.00     0.043 C   
ATOM     33  C15 UNL     1      -1.309  -3.363   0.752  1.00  0.00     0.010 C   
ATOM     34  C19 UNL     1      -0.615  -2.670   3.081  1.00  0.00     0.010 C   
ATOM     35  C16 UNL     1      -1.699  -4.742   1.284  1.00  0.00     0.001 C   
ATOM     36  C18 UNL     1      -1.020  -4.044   3.610  1.00  0.00     0.001 C   
ATOM     37  C17 UNL     1      -0.901  -5.114   2.530  1.00  0.00     0.000 C   
ENDBRANCH  18  32
ENDBRANCH   3  18
TORSDOF 9
