REMARK SMILES O[C@@H](Cn1cc([C@@H]([NH2+]Cc2ccc3c(c2)OCO3)C2CCCCC2)nn1)c1cccc(Cl)c1
REMARK SMILES IDX 4 1 5 2 6 3 25 4 26 5 3 7 2 8 1 9 27 11 28 12 33 13 29 14
REMARK SMILES IDX 31 15 30 16 32 17 7 18 8 19 9 22 10 23 11 24 15 25 12 26
REMARK SMILES IDX 14 27 13 28 16 29 18 30 17 31 19 32 20 33 24 34 21 35 23 36
REMARK SMILES IDX 22 37
REMARK H PARENT 5 6 1 10 8 20 8 21
ROOT
ATOM     1   N1  UNL     1      -1.600  -2.643  -1.877  1.00  0.00    -0.209 N   
ATOM     2   C3  UNL     1      -0.273  -2.714  -1.550  1.00  0.00     0.045 A   
ATOM     3   C4  UNL     1      -0.143  -1.835  -0.499  1.00  0.00     0.127 A   
ATOM     4   N3  UNL     1      -1.372  -1.302  -0.203  1.00  0.00    -0.132 NA  
ATOM     5   N4  UNL     1      -2.255  -1.810  -1.047  1.00  0.00    -0.076 NA  
ATOM     6   H5  UNL     1       0.424  -3.325  -2.106  1.00  0.00     0.083 HD  
ENDROOT
BRANCH   1   7
ATOM     7   C2  UNL     1      -2.299  -3.302  -2.961  1.00  0.00     0.170 C   
BRANCH   7   8
ATOM     8   C1  UNL     1      -2.031  -2.679  -4.340  1.00  0.00     0.164 C   
BRANCH   8   9
ATOM     9   O1  UNL     1      -0.679  -2.935  -4.739  1.00  0.00    -0.387 OA  
ATOM     10  H1  UNL     1      -0.583  -2.570  -5.639  1.00  0.00     0.211 HD  
ENDBRANCH   8   9
BRANCH   8  11
ATOM     11  C20 UNL     1      -2.336  -1.196  -4.423  1.00  0.00    -0.016 A   
ATOM     12  C21 UNL     1      -3.636  -0.760  -4.720  1.00  0.00     0.006 A   
ATOM     13  C25 UNL     1      -1.348  -0.232  -4.161  1.00  0.00     0.027 A   
ATOM     14  C22 UNL     1      -3.939   0.604  -4.755  1.00  0.00     0.002 A   
ATOM     15  C24 UNL     1      -1.660   1.128  -4.184  1.00  0.00     0.041 A   
ATOM     16  C23 UNL     1      -2.951   1.550  -4.483  1.00  0.00     0.020 A   
ATOM     17  CL1 UNL     1      -0.440   2.282  -3.807  1.00  0.00    -0.084 Cl  
ENDBRANCH   8  11
ENDBRANCH   7   8
ENDBRANCH   1   7
BRANCH   3  18
ATOM     18  C5  UNL     1       1.060  -1.363   0.253  1.00  0.00     0.117 C   
BRANCH  18  19
ATOM     19  N2  UNL     1       0.839   0.046   0.736  1.00  0.00     0.249 N   
ATOM     20  H7  UNL     1       1.459   0.297   1.510  1.00  0.00     0.199 HD  
ATOM     21  H8  UNL     1      -0.121   0.076   1.112  1.00  0.00     0.199 HD  
BRANCH  19  22
ATOM     22  C6  UNL     1       0.920   1.095  -0.320  1.00  0.00     0.164 C   
BRANCH  22  23
ATOM     23  C7  UNL     1       0.519   2.430   0.237  1.00  0.00    -0.002 A   
ATOM     24  C8  UNL     1      -0.841   2.823   0.221  1.00  0.00     0.012 A   
ATOM     25  C12 UNL     1       1.478   3.272   0.824  1.00  0.00     0.045 A   
ATOM     26  C9  UNL     1      -1.242   4.045   0.772  1.00  0.00     0.037 A   
ATOM     27  C11 UNL     1       1.048   4.469   1.360  1.00  0.00     0.109 A   
ATOM     28  C10 UNL     1      -0.273   4.845   1.334  1.00  0.00     0.108 A   
ATOM     29  O2  UNL     1       1.840   5.394   1.963  1.00  0.00    -0.316 OA  
ATOM     30  O3  UNL     1      -0.478   6.056   1.915  1.00  0.00    -0.316 OA  
ATOM     31  C13 UNL     1       0.868   6.411   2.297  1.00  0.00     0.337 C   
ENDBRANCH  22  23
ENDBRANCH  19  22
ENDBRANCH  18  19
BRANCH  18  32
ATOM     32  C14 UNL     1       1.412  -2.291   1.444  1.00  0.00     0.043 C   
ATOM     33  C15 UNL     1       2.857  -2.048   1.940  1.00  0.00     0.010 C   
ATOM     34  C19 UNL     1       0.422  -2.227   2.619  1.00  0.00     0.010 C   
ATOM     35  C16 UNL     1       3.099  -2.502   3.383  1.00  0.00     0.001 C   
ATOM     36  C18 UNL     1       0.719  -3.300   3.671  1.00  0.00     0.001 C   
ATOM     37  C17 UNL     1       2.200  -3.666   3.773  1.00  0.00     0.000 C   
ENDBRANCH  18  32
ENDBRANCH   3  18
TORSDOF 9
