REMARK SMILES COc1ccc(Cn2cc([C@@H]([NH2+]Cc3ccc4c(c3)OCO4)C3CCCCC3)nn2)cc1F
REMARK SMILES IDX 8 1 9 2 10 3 29 4 30 5 7 7 6 8 3 9 4 10 32 11 5 12 31 13
REMARK SMILES IDX 33 14 2 15 1 16 11 17 12 18 13 21 14 22 15 23 19 24 16 25
REMARK SMILES IDX 18 26 17 27 20 28 22 29 21 30 23 31 24 32 28 33 25 34 27 35
REMARK SMILES IDX 26 36
REMARK H PARENT 9 6 12 19 12 20
ROOT
ATOM     1   N1  UNL     1       2.146   2.218  -1.909  1.00  0.00    -0.208 N   
ATOM     2   C7  UNL     1       1.796   1.834  -0.644  1.00  0.00     0.046 A   
ATOM     3   C8  UNL     1       2.604   0.748  -0.392  1.00  0.00     0.127 A   
ATOM     4   N3  UNL     1       3.420   0.532  -1.470  1.00  0.00    -0.132 NA  
ATOM     5   N4  UNL     1       3.125   1.432  -2.394  1.00  0.00    -0.076 NA  
ATOM     6   H8  UNL     1       1.005   2.319  -0.088  1.00  0.00     0.083 HD  
ENDROOT
BRANCH   1   7
ATOM     7   C6  UNL     1       1.509   3.219  -2.749  1.00  0.00     0.169 C   
BRANCH   7   8
ATOM     8   C5  UNL     1       0.139   2.746  -3.171  1.00  0.00    -0.025 A   
ATOM     9   C2  UNL     1      -2.415   1.759  -3.872  1.00  0.00     0.110 A   
ATOM     10  C3  UNL     1      -2.288   2.779  -2.926  1.00  0.00     0.037 A   
ATOM     11  C25 UNL     1      -1.257   1.247  -4.464  1.00  0.00     0.153 A   
ATOM     12  C4  UNL     1      -1.021   3.268  -2.579  1.00  0.00     0.008 A   
ATOM     13  C24 UNL     1       0.006   1.731  -4.130  1.00  0.00     0.047 A   
ATOM     14  F1  UNL     1      -1.340   0.253  -5.362  1.00  0.00    -0.204 F   
BRANCH   9  15
ATOM     15  O1  UNL     1      -3.589   1.186  -4.273  1.00  0.00    -0.346 OA  
ATOM     16  C1  UNL     1      -4.796   1.738  -3.763  1.00  0.00     0.203 C   
ENDBRANCH   9  15
ENDBRANCH   7   8
ENDBRANCH   1   7
BRANCH   3  17
ATOM     17  C9  UNL     1       2.631  -0.204   0.760  1.00  0.00     0.117 C   
BRANCH  17  18
ATOM     18  N2  UNL     1       2.592  -1.627   0.230  1.00  0.00     0.249 N   
ATOM     19  H10 UNL     1       2.665  -2.297   0.997  1.00  0.00     0.199 HD  
ATOM     20  H11 UNL     1       3.427  -1.741  -0.361  1.00  0.00     0.199 HD  
BRANCH  18  21
ATOM     21  C10 UNL     1       1.407  -2.006  -0.605  1.00  0.00     0.164 C   
BRANCH  21  22
ATOM     22  C11 UNL     1       0.097  -1.862   0.120  1.00  0.00    -0.002 A   
ATOM     23  C12 UNL     1      -0.224  -2.713   1.205  1.00  0.00     0.012 A   
ATOM     24  C16 UNL     1      -0.812  -0.859  -0.263  1.00  0.00     0.045 A   
ATOM     25  C13 UNL     1      -1.427  -2.562   1.905  1.00  0.00     0.037 A   
ATOM     26  C15 UNL     1      -1.986  -0.736   0.450  1.00  0.00     0.109 A   
ATOM     27  C14 UNL     1      -2.285  -1.564   1.503  1.00  0.00     0.108 A   
ATOM     28  O2  UNL     1      -2.958   0.186   0.221  1.00  0.00    -0.316 OA  
ATOM     29  O3  UNL     1      -3.488  -1.275   2.065  1.00  0.00    -0.316 OA  
ATOM     30  C17 UNL     1      -3.934  -0.194   1.219  1.00  0.00     0.337 C   
ENDBRANCH  21  22
ENDBRANCH  18  21
ENDBRANCH  17  18
BRANCH  17  31
ATOM     31  C18 UNL     1       3.908  -0.026   1.640  1.00  0.00     0.043 C   
ATOM     32  C19 UNL     1       4.059   1.415   2.183  1.00  0.00     0.010 C   
ATOM     33  C23 UNL     1       3.986  -0.994   2.841  1.00  0.00     0.010 C   
ATOM     34  C20 UNL     1       3.017   1.756   3.248  1.00  0.00     0.001 C   
ATOM     35  C22 UNL     1       2.946  -0.686   3.919  1.00  0.00     0.001 C   
ATOM     36  C21 UNL     1       3.049   0.759   4.403  1.00  0.00     0.000 C   
ENDBRANCH  17  31
ENDBRANCH   3  17
TORSDOF 8
