REMARK SMILES CC(C)[C@H]([NH2+]Cc1ccc2c(c1)OCO2)c1cn(Cc2cc(F)cc(N([O-])[O-])c2)nn1
REMARK SMILES IDX 16 1 17 2 18 3 30 4 31 5 4 7 2 8 1 9 3 10 5 11 6 14 7 15
REMARK SMILES IDX 8 16 12 17 9 18 11 19 10 20 13 21 15 22 14 23 19 24 20 25
REMARK SMILES IDX 21 26 29 27 22 28 25 29 24 30 23 31 26 32 27 33 28 34
REMARK H PARENT 17 6 5 12 5 13
ROOT
ATOM     1   C13 UNL     1       0.572  -0.986  -0.737  1.00  0.00     0.127 A   
ATOM     2   C14 UNL     1       0.874  -1.238   0.584  1.00  0.00     0.046 A   
ATOM     3   N2  UNL     1       2.125  -0.712   0.744  1.00  0.00    -0.208 N   
ATOM     4   N4  UNL     1       2.577  -0.190  -0.412  1.00  0.00    -0.076 NA  
ATOM     5   N5  UNL     1       1.639  -0.361  -1.329  1.00  0.00    -0.132 NA  
ATOM     6   H18 UNL     1       0.320  -1.683   1.399  1.00  0.00     0.083 HD  
ENDROOT
BRANCH   1   7
ATOM     7   C4  UNL     1      -0.693  -1.195  -1.502  1.00  0.00     0.117 C   
BRANCH   7   8
ATOM     8   C2  UNL     1      -0.744  -2.526  -2.299  1.00  0.00     0.037 C   
ATOM     9   C1  UNL     1      -0.741  -3.741  -1.362  1.00  0.00     0.014 C   
ATOM     10  C3  UNL     1       0.363  -2.683  -3.347  1.00  0.00     0.014 C   
ENDBRANCH   7   8
BRANCH   7  11
ATOM     11  N1  UNL     1      -0.959  -0.051  -2.463  1.00  0.00     0.249 N   
ATOM     12  H9  UNL     1      -0.172  -0.025  -3.123  1.00  0.00     0.199 HD  
ATOM     13  H10 UNL     1      -1.806  -0.249  -3.003  1.00  0.00     0.199 HD  
BRANCH  11  14
ATOM     14  C5  UNL     1      -1.058   1.325  -1.881  1.00  0.00     0.164 C   
BRANCH  14  15
ATOM     15  C6  UNL     1      -2.008   1.442  -0.722  1.00  0.00    -0.002 A   
ATOM     16  C7  UNL     1      -3.405   1.327  -0.913  1.00  0.00     0.012 A   
ATOM     17  C11 UNL     1      -1.502   1.640   0.576  1.00  0.00     0.045 A   
ATOM     18  C8  UNL     1      -4.285   1.395   0.173  1.00  0.00     0.037 A   
ATOM     19  C10 UNL     1      -2.395   1.698   1.624  1.00  0.00     0.109 A   
ATOM     20  C9  UNL     1      -3.748   1.577   1.429  1.00  0.00     0.108 A   
ATOM     21  O1  UNL     1      -2.071   1.868   2.932  1.00  0.00    -0.316 OA  
ATOM     22  O2  UNL     1      -4.448   1.660   2.589  1.00  0.00    -0.316 OA  
ATOM     23  C12 UNL     1      -3.384   1.876   3.542  1.00  0.00     0.337 C   
ENDBRANCH  14  15
ENDBRANCH  11  14
ENDBRANCH   7  11
ENDBRANCH   1   7
BRANCH   3  24
ATOM     24  C15 UNL     1       2.896  -0.590   1.970  1.00  0.00     0.169 C   
BRANCH  24  25
ATOM     25  C16 UNL     1       2.417   0.596   2.775  1.00  0.00    -0.024 A   
ATOM     26  C17 UNL     1       2.924   1.879   2.522  1.00  0.00     0.044 A   
ATOM     27  C21 UNL     1       1.413   0.448   3.747  1.00  0.00     0.036 A   
ATOM     28  C18 UNL     1       2.440   2.979   3.228  1.00  0.00     0.125 A   
ATOM     29  C20 UNL     1       0.931   1.572   4.442  1.00  0.00     0.121 A   
ATOM     30  C19 UNL     1       1.446   2.845   4.188  1.00  0.00     0.070 A   
ATOM     31  F1  UNL     1       2.933   4.194   2.960  1.00  0.00    -0.207 F   
BRANCH  29  32
ATOM     32  N3  UNL     1      -0.154   1.408   5.417  1.00  0.00     0.092 N   
ATOM     33  O3  UNL     1      -0.613   0.268   5.573  1.00  0.00    -0.138 OA  
ATOM     34  O4  UNL     1      -0.564   2.419   6.002  1.00  0.00    -0.138 OA  
ENDBRANCH  29  32
ENDBRANCH  24  25
ENDBRANCH   3  24
TORSDOF 8
