REMARK SMILES Cc1ccoc1[C@@H](CO)n1cc([C@@H]([NH2+]Cc2ccc3c(c2)OCO3)C2CCCCC2)nn1
REMARK SMILES IDX 10 1 11 2 12 3 31 4 32 5 7 7 6 8 2 9 3 10 4 11 5 12 1 13
REMARK SMILES IDX 8 14 9 15 13 17 14 18 15 21 16 22 17 23 21 24 18 25 20 26
REMARK SMILES IDX 19 27 22 28 24 29 23 30 25 31 26 32 30 33 27 34 29 35 28 36
REMARK H PARENT 11 6 9 16 14 19 14 20
ROOT
ATOM     1   N1  UNL     1       0.977   0.966  -2.138  1.00  0.00    -0.200 N   
ATOM     2   C8  UNL     1       0.492   0.964  -0.854  1.00  0.00     0.046 A   
ATOM     3   C9  UNL     1       0.383  -0.371  -0.538  1.00  0.00     0.127 A   
ATOM     4   N3  UNL     1       0.797  -1.123  -1.606  1.00  0.00    -0.132 NA  
ATOM     5   N4  UNL     1       1.138  -0.299  -2.582  1.00  0.00    -0.075 NA  
ATOM     6   H10 UNL     1       0.262   1.877  -0.323  1.00  0.00     0.083 HD  
ENDROOT
BRANCH   1   7
ATOM     7   C6  UNL     1       1.229   2.127  -2.992  1.00  0.00     0.179 C   
BRANCH   7   8
ATOM     8   C5  UNL     1       2.673   2.186  -3.374  1.00  0.00     0.086 A   
ATOM     9   C2  UNL     1       3.792   2.747  -2.775  1.00  0.00    -0.020 A   
ATOM     10  C3  UNL     1       4.877   2.464  -3.650  1.00  0.00     0.031 A   
ATOM     11  C4  UNL     1       4.357   1.759  -4.708  1.00  0.00     0.136 A   
ATOM     12  O1  UNL     1       3.022   1.591  -4.551  1.00  0.00    -0.320 OA  
ATOM     13  C1  UNL     1       3.855   3.489  -1.491  1.00  0.00     0.047 C   
ENDBRANCH   7   8
BRANCH   7  14
ATOM     14  C7  UNL     1       0.281   2.151  -4.197  1.00  0.00     0.188 C   
BRANCH  14  15
ATOM     15  O2  UNL     1      -1.061   2.418  -3.770  1.00  0.00    -0.394 OA  
ATOM     16  H9  UNL     1      -1.595   2.516  -4.581  1.00  0.00     0.210 HD  
ENDBRANCH  14  15
ENDBRANCH   7  14
ENDBRANCH   1   7
BRANCH   3  17
ATOM     17  C10 UNL     1      -0.140  -1.051   0.685  1.00  0.00     0.117 C   
BRANCH  17  18
ATOM     18  N2  UNL     1      -0.749  -2.387   0.330  1.00  0.00     0.249 N   
ATOM     19  H12 UNL     1      -0.914  -2.949   1.169  1.00  0.00     0.199 HD  
ATOM     20  H13 UNL     1      -0.047  -2.881  -0.239  1.00  0.00     0.199 HD  
BRANCH  18  21
ATOM     21  C11 UNL     1      -2.002  -2.347  -0.483  1.00  0.00     0.164 C   
BRANCH  21  22
ATOM     22  C12 UNL     1      -3.150  -1.692   0.232  1.00  0.00    -0.002 A   
ATOM     23  C13 UNL     1      -3.601  -0.412  -0.174  1.00  0.00     0.012 A   
ATOM     24  C17 UNL     1      -3.764  -2.327   1.325  1.00  0.00     0.045 A   
ATOM     25  C14 UNL     1      -4.642   0.232   0.503  1.00  0.00     0.037 A   
ATOM     26  C16 UNL     1      -4.787  -1.664   1.970  1.00  0.00     0.109 A   
ATOM     27  C15 UNL     1      -5.212  -0.420   1.574  1.00  0.00     0.108 A   
ATOM     28  O3  UNL     1      -5.480  -2.133   3.042  1.00  0.00    -0.316 OA  
ATOM     29  O4  UNL     1      -6.226   0.052   2.346  1.00  0.00    -0.316 OA  
ATOM     30  C18 UNL     1      -6.424  -1.057   3.250  1.00  0.00     0.337 C   
ENDBRANCH  21  22
ENDBRANCH  18  21
ENDBRANCH  17  18
BRANCH  17  31
ATOM     31  C19 UNL     1       0.958  -1.225   1.771  1.00  0.00     0.043 C   
ATOM     32  C20 UNL     1       2.058  -2.240   1.401  1.00  0.00     0.010 C   
ATOM     33  C24 UNL     1       0.349  -1.578   3.143  1.00  0.00     0.010 C   
ATOM     34  C21 UNL     1       3.126  -2.330   2.491  1.00  0.00     0.001 C   
ATOM     35  C23 UNL     1       1.421  -1.669   4.228  1.00  0.00     0.001 C   
ATOM     36  C22 UNL     1       2.519  -2.658   3.851  1.00  0.00     0.000 C   
ENDBRANCH  17  31
ENDBRANCH   3  17
TORSDOF 9
