REMARK SMILES Cc1ccoc1[C@H](CO)n1cc([C@@H]([NH2+]Cc2ccc3c(c2)OCO3)C2CCCCC2)nn1
REMARK SMILES IDX 10 1 11 2 12 3 31 4 32 5 7 7 6 8 2 9 3 10 4 11 5 12 1 13
REMARK SMILES IDX 8 14 9 15 13 17 14 18 15 21 16 22 17 23 21 24 18 25 20 26
REMARK SMILES IDX 19 27 22 28 24 29 23 30 25 31 26 32 30 33 27 34 29 35 28 36
REMARK H PARENT 11 6 9 16 14 19 14 20
ROOT
ATOM     1   N1  UNL     1       0.557   0.647   2.690  1.00  0.00    -0.200 N   
ATOM     2   C8  UNL     1       0.874  -0.409   1.875  1.00  0.00     0.046 A   
ATOM     3   C9  UNL     1       0.652   0.058   0.600  1.00  0.00     0.127 A   
ATOM     4   N3  UNL     1       0.213   1.354   0.669  1.00  0.00    -0.132 NA  
ATOM     5   N4  UNL     1       0.155   1.703   1.942  1.00  0.00    -0.075 NA  
ATOM     6   H10 UNL     1       1.217  -1.361   2.259  1.00  0.00     0.083 HD  
ENDROOT
BRANCH   1   7
ATOM     7   C6  UNL     1       0.598   0.781   4.152  1.00  0.00     0.179 C   
BRANCH   7   8
ATOM     8   C5  UNL     1       1.149  -0.442   4.815  1.00  0.00     0.086 A   
ATOM     9   C2  UNL     1       2.331  -0.706   5.489  1.00  0.00    -0.020 A   
ATOM     10  C3  UNL     1       2.243  -2.067   5.896  1.00  0.00     0.031 A   
ATOM     11  C4  UNL     1       1.028  -2.533   5.456  1.00  0.00     0.136 A   
ATOM     12  O1  UNL     1       0.360  -1.557   4.793  1.00  0.00    -0.320 OA  
ATOM     13  C1  UNL     1       3.454   0.230   5.749  1.00  0.00     0.047 C   
ENDBRANCH   7   8
BRANCH   7  14
ATOM     14  C7  UNL     1      -0.795   1.134   4.705  1.00  0.00     0.188 C   
BRANCH  14  15
ATOM     15  O2  UNL     1      -1.136   2.502   4.465  1.00  0.00    -0.394 OA  
ATOM     16  H9  UNL     1      -1.087   2.662   3.502  1.00  0.00     0.210 HD  
ENDBRANCH  14  15
ENDBRANCH   7  14
ENDBRANCH   1   7
BRANCH   3  17
ATOM     17  C10 UNL     1       0.797  -0.608  -0.734  1.00  0.00     0.117 C   
BRANCH  17  18
ATOM     18  N2  UNL     1      -0.032   0.105  -1.768  1.00  0.00     0.249 N   
ATOM     19  H12 UNL     1       0.304  -0.065  -2.720  1.00  0.00     0.199 HD  
ATOM     20  H13 UNL     1       0.087   1.115  -1.598  1.00  0.00     0.199 HD  
BRANCH  18  21
ATOM     21  C11 UNL     1      -1.493  -0.175  -1.715  1.00  0.00     0.164 C   
BRANCH  21  22
ATOM     22  C12 UNL     1      -2.224   0.678  -2.713  1.00  0.00    -0.002 A   
ATOM     23  C13 UNL     1      -2.691   1.962  -2.341  1.00  0.00     0.012 A   
ATOM     24  C17 UNL     1      -2.393   0.234  -4.036  1.00  0.00     0.045 A   
ATOM     25  C14 UNL     1      -3.332   2.789  -3.268  1.00  0.00     0.037 A   
ATOM     26  C16 UNL     1      -3.028   1.076  -4.925  1.00  0.00     0.109 A   
ATOM     27  C15 UNL     1      -3.485   2.317  -4.553  1.00  0.00     0.108 A   
ATOM     28  O3  UNL     1      -3.269   0.804  -6.235  1.00  0.00    -0.316 OA  
ATOM     29  O4  UNL     1      -4.075   2.981  -5.580  1.00  0.00    -0.316 OA  
ATOM     30  C18 UNL     1      -3.966   2.006  -6.639  1.00  0.00     0.337 C   
ENDBRANCH  21  22
ENDBRANCH  18  21
ENDBRANCH  17  18
BRANCH  17  31
ATOM     31  C19 UNL     1       2.280  -0.688  -1.187  1.00  0.00     0.043 C   
ATOM     32  C20 UNL     1       2.464  -1.668  -2.363  1.00  0.00     0.010 C   
ATOM     33  C24 UNL     1       2.903   0.680  -1.531  1.00  0.00     0.010 C   
ATOM     34  C21 UNL     1       3.932  -1.798  -2.764  1.00  0.00     0.001 C   
ATOM     35  C23 UNL     1       4.370   0.542  -1.937  1.00  0.00     0.001 C   
ATOM     36  C22 UNL     1       4.547  -0.442  -3.088  1.00  0.00     0.000 C   
ENDBRANCH  17  31
ENDBRANCH   3  17
TORSDOF 9
