REMARK SMILES CC(C)(C)[C@H]([NH2+]Cc1ccc2c(c1)OCO2)c1cn(Cc2cc(F)cc(N([O-])[O-])c2)nn1
REMARK SMILES IDX 17 1 18 2 19 3 31 4 32 5 5 7 2 8 1 9 3 10 4 11 6 12 7 15
REMARK SMILES IDX 8 16 9 17 13 18 10 19 12 20 11 21 14 22 16 23 15 24 20 25
REMARK SMILES IDX 21 26 22 27 30 28 23 29 26 30 25 31 24 32 27 33 28 34 29 35
REMARK H PARENT 18 6 6 13 6 14
ROOT
ATOM     1   C14 UNL     1      -1.460   0.252   0.695  1.00  0.00     0.127 A   
ATOM     2   C15 UNL     1      -0.789   0.808   1.763  1.00  0.00     0.046 A   
ATOM     3   N2  UNL     1      -0.047  -0.228   2.261  1.00  0.00    -0.208 N   
ATOM     4   N4  UNL     1      -0.236  -1.348   1.538  1.00  0.00    -0.076 NA  
ATOM     5   N5  UNL     1      -1.094  -1.066   0.573  1.00  0.00    -0.132 NA  
ATOM     6   H20 UNL     1      -0.764   1.800   2.191  1.00  0.00     0.083 HD  
ENDROOT
BRANCH   1   7
ATOM     7   C5  UNL     1      -2.392   0.842  -0.321  1.00  0.00     0.120 C   
BRANCH   7   8
ATOM     8   C2  UNL     1      -3.910   0.719   0.048  1.00  0.00     0.010 C   
ATOM     9   C1  UNL     1      -4.184   1.409   1.404  1.00  0.00     0.017 C   
ATOM     10  C3  UNL     1      -4.387  -0.744   0.148  1.00  0.00     0.017 C   
ATOM     11  C4  UNL     1      -4.774   1.448  -1.008  1.00  0.00     0.017 C   
ENDBRANCH   7   8
BRANCH   7  12
ATOM     12  N1  UNL     1      -2.112   0.177  -1.658  1.00  0.00     0.250 N   
ATOM     13  H11 UNL     1      -1.630  -0.710  -1.435  1.00  0.00     0.199 HD  
ATOM     14  H12 UNL     1      -2.976  -0.106  -2.128  1.00  0.00     0.199 HD  
BRANCH  12  15
ATOM     15  C6  UNL     1      -1.265   0.940  -2.616  1.00  0.00     0.164 C   
BRANCH  15  16
ATOM     16  C7  UNL     1       0.123   1.223  -2.113  1.00  0.00    -0.002 A   
ATOM     17  C8  UNL     1       1.074   0.180  -2.007  1.00  0.00     0.012 A   
ATOM     18  C12 UNL     1       0.482   2.524  -1.722  1.00  0.00     0.045 A   
ATOM     19  C9  UNL     1       2.363   0.426  -1.521  1.00  0.00     0.037 A   
ATOM     20  C11 UNL     1       1.760   2.732  -1.246  1.00  0.00     0.109 A   
ATOM     21  C10 UNL     1       2.675   1.714  -1.147  1.00  0.00     0.108 A   
ATOM     22  O1  UNL     1       2.261   3.924  -0.829  1.00  0.00    -0.316 OA  
ATOM     23  O2  UNL     1       3.868   2.137  -0.655  1.00  0.00    -0.316 OA  
ATOM     24  C13 UNL     1       3.625   3.555  -0.525  1.00  0.00     0.337 C   
ENDBRANCH  15  16
ENDBRANCH  12  15
ENDBRANCH   7  12
ENDBRANCH   1   7
BRANCH   3  25
ATOM     25  C16 UNL     1       0.827  -0.236   3.422  1.00  0.00     0.169 C   
BRANCH  25  26
ATOM     26  C17 UNL     1       2.193   0.316   3.092  1.00  0.00    -0.024 A   
ATOM     27  C18 UNL     1       2.609   1.550   3.612  1.00  0.00     0.044 A   
ATOM     28  C22 UNL     1       3.078  -0.399   2.266  1.00  0.00     0.036 A   
ATOM     29  C19 UNL     1       3.877   2.048   3.315  1.00  0.00     0.125 A   
ATOM     30  C21 UNL     1       4.351   0.122   1.976  1.00  0.00     0.121 A   
ATOM     31  C20 UNL     1       4.760   1.347   2.506  1.00  0.00     0.070 A   
ATOM     32  F1  UNL     1       4.244   3.236   3.811  1.00  0.00    -0.207 F   
BRANCH  30  33
ATOM     33  N3  UNL     1       5.251  -0.617   1.085  1.00  0.00     0.092 N   
ATOM     34  O3  UNL     1       6.429  -0.243   1.019  1.00  0.00    -0.138 OA  
ATOM     35  O4  UNL     1       4.772  -1.567   0.449  1.00  0.00    -0.138 OA  
ENDBRANCH  30  33
ENDBRANCH  25  26
ENDBRANCH   3  25
TORSDOF 8
