REMARK SMILES COc1ccccc1-n1cc([C@H](CC(C)C)[NH2+]Cc2ccc3c(c2)OCO3)nn1
REMARK SMILES IDX 9 1 10 2 11 3 28 4 29 5 8 6 3 7 4 8 5 9 7 10 6 11 2 12 1 13
REMARK SMILES IDX 12 14 13 15 14 16 15 17 16 18 17 19 18 22 19 23 20 24 24 25
REMARK SMILES IDX 21 26 23 27 22 28 25 29 27 30 26 31
REMARK H PARENT 17 20 17 21
ROOT
ATOM     1   N1  UNL     1       2.341  -0.720  -0.286  1.00  0.00    -0.178 N   
ATOM     2   C8  UNL     1       1.076  -0.228  -0.012  1.00  0.00     0.135 A   
ATOM     3   C9  UNL     1       0.235  -0.841  -0.912  1.00  0.00     0.127 A   
ATOM     4   N3  UNL     1       0.968  -1.651  -1.725  1.00  0.00    -0.131 NA  
ATOM     5   N4  UNL     1       2.233  -1.567  -1.353  1.00  0.00    -0.071 NA  
ENDROOT
BRANCH   1   6
ATOM     6   C7  UNL     1       3.605  -0.465   0.322  1.00  0.00     0.088 A   
ATOM     7   C2  UNL     1       3.779   0.399   1.424  1.00  0.00     0.098 A   
ATOM     8   C3  UNL     1       5.073   0.588   1.937  1.00  0.00     0.035 A   
ATOM     9   C4  UNL     1       6.175  -0.067   1.384  1.00  0.00     0.003 A   
ATOM     10  C6  UNL     1       4.730  -1.122  -0.222  1.00  0.00     0.029 A   
ATOM     11  C5  UNL     1       6.004  -0.923   0.307  1.00  0.00     0.002 A   
BRANCH   7  12
ATOM     12  O1  UNL     1       2.682   1.028   1.946  1.00  0.00    -0.347 OA  
ATOM     13  C1  UNL     1       2.844   1.785   3.142  1.00  0.00     0.203 C   
ENDBRANCH   7  12
ENDBRANCH   1   6
BRANCH   3  14
ATOM     14  C10 UNL     1      -1.232  -0.703  -1.138  1.00  0.00     0.114 C   
BRANCH  14  15
ATOM     15  C11 UNL     1      -2.040  -1.851  -0.501  1.00  0.00     0.064 C   
BRANCH  15  16
ATOM     16  C12 UNL     1      -1.961  -1.940   1.038  1.00  0.00    -0.012 C   
ATOM     17  C13 UNL     1      -2.472  -0.672   1.723  1.00  0.00     0.007 C   
ATOM     18  C14 UNL     1      -2.763  -3.149   1.526  1.00  0.00     0.007 C   
ENDBRANCH  15  16
ENDBRANCH  14  15
BRANCH  14  19
ATOM     19  N2  UNL     1      -1.525  -0.738  -2.625  1.00  0.00     0.249 N   
ATOM     20  H19 UNL     1      -2.525  -0.891  -2.786  1.00  0.00     0.199 HD  
ATOM     21  H20 UNL     1      -1.027  -1.560  -2.995  1.00  0.00     0.199 HD  
BRANCH  19  22
ATOM     22  C15 UNL     1      -1.082   0.450  -3.414  1.00  0.00     0.164 C   
BRANCH  22  23
ATOM     23  C16 UNL     1      -1.955   1.653  -3.182  1.00  0.00    -0.002 A   
ATOM     24  C17 UNL     1      -3.225   1.742  -3.801  1.00  0.00     0.012 A   
ATOM     25  C21 UNL     1      -1.531   2.685  -2.325  1.00  0.00     0.045 A   
ATOM     26  C18 UNL     1      -4.060   2.843  -3.574  1.00  0.00     0.037 A   
ATOM     27  C20 UNL     1      -2.380   3.754  -2.122  1.00  0.00     0.109 A   
ATOM     28  C19 UNL     1      -3.607   3.833  -2.730  1.00  0.00     0.108 A   
ATOM     29  O2  UNL     1      -2.128   4.825  -1.324  1.00  0.00    -0.316 OA  
ATOM     30  O3  UNL     1      -4.277   4.968  -2.400  1.00  0.00    -0.316 OA  
ATOM     31  C22 UNL     1      -3.313   5.623  -1.551  1.00  0.00     0.337 C   
ENDBRANCH  22  23
ENDBRANCH  19  22
ENDBRANCH  14  19
ENDBRANCH   3  14
TORSDOF 8
