REMARK SMILES OC[C@H](c1cc(F)cc(F)c1)n1cc([C@@H]([NH2+]Cc2ccc3c(c2)OCO3)C2CCCC2)nn1
REMARK SMILES IDX 12 1 13 2 14 3 32 4 33 5 3 7 2 8 1 9 4 11 5 12 11 13 6 14
REMARK SMILES IDX 9 15 8 16 7 17 10 18 15 19 16 20 17 23 18 24 19 25 23 26
REMARK SMILES IDX 20 27 22 28 21 29 24 30 26 31 25 32 27 33 28 34 31 35 29 36
REMARK SMILES IDX 30 37
REMARK H PARENT 13 6 1 10 16 21 16 22
ROOT
ATOM     1   N1  UNL     1      -2.135   1.712  -0.022  1.00  0.00    -0.202 N   
ATOM     2   C9  UNL     1      -0.978   1.091   0.365  1.00  0.00     0.046 A   
ATOM     3   C10 UNL     1      -0.015   1.624  -0.460  1.00  0.00     0.127 A   
ATOM     4   N3  UNL     1      -0.595   2.543  -1.294  1.00  0.00    -0.132 NA  
ATOM     5   N4  UNL     1      -1.891   2.580  -1.028  1.00  0.00    -0.075 NA  
ATOM     6   H8  UNL     1      -0.959   0.338   1.142  1.00  0.00     0.083 HD  
ENDROOT
BRANCH   1   7
ATOM     7   C2  UNL     1      -3.506   1.447   0.413  1.00  0.00     0.155 C   
BRANCH   7   8
ATOM     8   C1  UNL     1      -3.753   1.926   1.859  1.00  0.00     0.185 C   
BRANCH   8   9
ATOM     9   O1  UNL     1      -2.879   1.320   2.811  1.00  0.00    -0.394 OA  
ATOM     10  H1  UNL     1      -3.131   1.664   3.689  1.00  0.00     0.210 HD  
ENDBRANCH   8   9
ENDBRANCH   7   8
BRANCH   7  11
ATOM     11  C3  UNL     1      -3.884   0.008   0.074  1.00  0.00    -0.017 A   
ATOM     12  C4  UNL     1      -3.835  -1.042   1.004  1.00  0.00     0.045 A   
ATOM     13  C8  UNL     1      -4.249  -0.306  -1.250  1.00  0.00     0.045 A   
ATOM     14  C5  UNL     1      -4.144  -2.348   0.617  1.00  0.00     0.126 A   
ATOM     15  C7  UNL     1      -4.552  -1.618  -1.613  1.00  0.00     0.126 A   
ATOM     16  C6  UNL     1      -4.505  -2.647  -0.688  1.00  0.00     0.078 A   
ATOM     17  F1  UNL     1      -4.076  -3.330   1.524  1.00  0.00    -0.207 F   
ATOM     18  F2  UNL     1      -4.880  -1.885  -2.883  1.00  0.00    -0.207 F   
ENDBRANCH   7  11
ENDBRANCH   1   7
BRANCH   3  19
ATOM     19  C11 UNL     1       1.431   1.288  -0.599  1.00  0.00     0.117 C   
BRANCH  19  20
ATOM     20  N2  UNL     1       1.818   1.170  -2.061  1.00  0.00     0.249 N   
ATOM     21  H10 UNL     1       1.651   2.093  -2.484  1.00  0.00     0.199 HD  
ATOM     22  H11 UNL     1       2.818   0.971  -2.141  1.00  0.00     0.199 HD  
BRANCH  20  23
ATOM     23  C12 UNL     1       1.065   0.171  -2.883  1.00  0.00     0.164 C   
BRANCH  23  24
ATOM     24  C13 UNL     1       1.089  -1.222  -2.319  1.00  0.00    -0.002 A   
ATOM     25  C14 UNL     1       2.286  -1.976  -2.298  1.00  0.00     0.012 A   
ATOM     26  C18 UNL     1      -0.085  -1.774  -1.777  1.00  0.00     0.045 A   
ATOM     27  C15 UNL     1       2.318  -3.255  -1.731  1.00  0.00     0.037 A   
ATOM     28  C17 UNL     1      -0.019  -3.035  -1.223  1.00  0.00     0.109 A   
ATOM     29  C16 UNL     1       1.149  -3.754  -1.198  1.00  0.00     0.108 A   
ATOM     30  O2  UNL     1      -1.053  -3.700  -0.646  1.00  0.00    -0.316 OA  
ATOM     31  O3  UNL     1       0.998  -4.966  -0.604  1.00  0.00    -0.316 OA  
ATOM     32  C19 UNL     1      -0.408  -4.938  -0.272  1.00  0.00     0.337 C   
ENDBRANCH  23  24
ENDBRANCH  20  23
ENDBRANCH  19  20
BRANCH  19  33
ATOM     33  C20 UNL     1       2.336   2.352   0.054  1.00  0.00     0.043 C   
ATOM     34  C21 UNL     1       3.835   2.044  -0.030  1.00  0.00     0.010 C   
ATOM     35  C24 UNL     1       2.126   2.484   1.566  1.00  0.00     0.010 C   
ATOM     36  C22 UNL     1       4.480   2.844   1.101  1.00  0.00     0.001 C   
ATOM     37  C23 UNL     1       3.345   3.269   2.028  1.00  0.00     0.001 C   
ENDBRANCH  19  33
ENDBRANCH   3  19
TORSDOF 9
