REMARK SMILES OC[C@@H](c1cc(F)cc(F)c1)n1cc([C@@H]([NH2+]Cc2ccc3c(c2)OCO3)C2CCCC2)nn1
REMARK SMILES IDX 12 1 13 2 14 3 32 4 33 5 3 7 2 8 1 9 4 11 5 12 11 13 6 14
REMARK SMILES IDX 9 15 8 16 7 17 10 18 15 19 16 20 17 23 18 24 19 25 23 26
REMARK SMILES IDX 20 27 22 28 21 29 24 30 26 31 25 32 27 33 28 34 31 35 29 36
REMARK SMILES IDX 30 37
REMARK H PARENT 13 6 1 10 16 21 16 22
ROOT
ATOM     1   N1  UNL     1       0.441  -2.251  -1.601  1.00  0.00    -0.202 N   
ATOM     2   C9  UNL     1      -0.465  -1.293  -1.973  1.00  0.00     0.046 A   
ATOM     3   C10 UNL     1      -0.435  -0.381  -0.943  1.00  0.00     0.127 A   
ATOM     4   N3  UNL     1       0.453  -0.811   0.012  1.00  0.00    -0.132 NA  
ATOM     5   N4  UNL     1       0.969  -1.960  -0.392  1.00  0.00    -0.075 NA  
ATOM     6   H8  UNL     1      -1.012  -1.349  -2.905  1.00  0.00     0.083 HD  
ENDROOT
BRANCH   1   7
ATOM     7   C2  UNL     1       0.890  -3.432  -2.339  1.00  0.00     0.155 C   
BRANCH   7   8
ATOM     8   C1  UNL     1      -0.182  -4.542  -2.337  1.00  0.00     0.185 C   
BRANCH   8   9
ATOM     9   O1  UNL     1      -1.430  -4.118  -2.889  1.00  0.00    -0.394 OA  
ATOM     10  H1  UNL     1      -2.019  -4.896  -2.889  1.00  0.00     0.210 HD  
ENDBRANCH   8   9
ENDBRANCH   7   8
BRANCH   7  11
ATOM     11  C3  UNL     1       1.474  -3.022  -3.687  1.00  0.00    -0.017 A   
ATOM     12  C4  UNL     1       0.773  -3.136  -4.898  1.00  0.00     0.045 A   
ATOM     13  C8  UNL     1       2.770  -2.472  -3.730  1.00  0.00     0.045 A   
ATOM     14  C5  UNL     1       1.357  -2.721  -6.098  1.00  0.00     0.126 A   
ATOM     15  C7  UNL     1       3.332  -2.064  -4.941  1.00  0.00     0.126 A   
ATOM     16  C6  UNL     1       2.635  -2.185  -6.132  1.00  0.00     0.078 A   
ATOM     17  F1  UNL     1       0.661  -2.838  -7.236  1.00  0.00    -0.207 F   
ATOM     18  F2  UNL     1       4.565  -1.542  -4.946  1.00  0.00    -0.207 F   
ENDBRANCH   7  11
ENDBRANCH   1   7
BRANCH   3  19
ATOM     19  C11 UNL     1      -1.181   0.900  -0.743  1.00  0.00     0.117 C   
BRANCH  19  20
ATOM     20  N2  UNL     1      -1.121   1.316   0.703  1.00  0.00     0.249 N   
ATOM     21  H10 UNL     1      -0.159   1.128   1.022  1.00  0.00     0.199 HD  
ATOM     22  H11 UNL     1      -1.272   2.320   0.828  1.00  0.00     0.199 HD  
BRANCH  20  23
ATOM     23  C12 UNL     1      -2.030   0.570   1.616  1.00  0.00     0.164 C   
BRANCH  23  24
ATOM     24  C13 UNL     1      -1.779   0.975   3.041  1.00  0.00    -0.002 A   
ATOM     25  C14 UNL     1      -0.743   0.356   3.781  1.00  0.00     0.012 A   
ATOM     26  C18 UNL     1      -2.524   2.013   3.625  1.00  0.00     0.045 A   
ATOM     27  C15 UNL     1      -0.455   0.760   5.089  1.00  0.00     0.037 A   
ATOM     28  C17 UNL     1      -2.211   2.388   4.915  1.00  0.00     0.109 A   
ATOM     29  C16 UNL     1      -1.206   1.780   5.627  1.00  0.00     0.108 A   
ATOM     30  O2  UNL     1      -2.824   3.373   5.621  1.00  0.00    -0.316 OA  
ATOM     31  O3  UNL     1      -1.059   2.307   6.870  1.00  0.00    -0.316 OA  
ATOM     32  C19 UNL     1      -2.099   3.309   6.871  1.00  0.00     0.337 C   
ENDBRANCH  23  24
ENDBRANCH  20  23
ENDBRANCH  19  20
BRANCH  19  33
ATOM     33  C20 UNL     1      -0.634   2.023  -1.647  1.00  0.00     0.043 C   
ATOM     34  C21 UNL     1      -1.502   3.293  -1.685  1.00  0.00     0.010 C   
ATOM     35  C24 UNL     1       0.771   2.539  -1.313  1.00  0.00     0.010 C   
ATOM     36  C22 UNL     1      -0.535   4.465  -1.867  1.00  0.00     0.001 C   
ATOM     37  C23 UNL     1       0.838   3.845  -2.089  1.00  0.00     0.001 C   
ENDBRANCH  19  33
ENDBRANCH   3  19
TORSDOF 9
