REMARK SMILES CC(C)[C@H]([NH2+]Cc1ccc2c(c1)OCO2)c1cn(CCc2ncc[nH]2)nn1
REMARK SMILES IDX 16 1 17 2 18 3 26 4 27 5 4 7 2 8 1 9 3 10 5 11 6 14 7 15
REMARK SMILES IDX 8 16 12 17 9 18 11 19 10 20 13 21 15 22 14 23 19 24 20 25
REMARK SMILES IDX 21 26 22 27 25 28 23 29 24 30
REMARK H PARENT 17 6 5 12 5 13 25 31
ROOT
ATOM     1   C13 UNL     1       1.195  -2.166   0.174  1.00  0.00     0.127 A   
ATOM     2   C14 UNL     1       1.569  -1.994  -1.138  1.00  0.00     0.045 A   
ATOM     3   N2  UNL     1       0.875  -2.962  -1.804  1.00  0.00    -0.212 N   
ATOM     4   N5  UNL     1       0.185  -3.740  -0.948  1.00  0.00    -0.076 NA  
ATOM     5   N6  UNL     1       0.365  -3.255   0.270  1.00  0.00    -0.132 NA  
ATOM     6   H18 UNL     1       2.168  -1.255  -1.653  1.00  0.00     0.083 HD  
ENDROOT
BRANCH   1   7
ATOM     7   C4  UNL     1       1.463  -1.327   1.378  1.00  0.00     0.117 C   
BRANCH   7   8
ATOM     8   C2  UNL     1       2.711  -1.803   2.167  1.00  0.00     0.037 C   
ATOM     9   C1  UNL     1       2.538  -3.157   2.865  1.00  0.00     0.014 C   
ATOM     10  C3  UNL     1       3.163  -0.753   3.190  1.00  0.00     0.014 C   
ENDBRANCH   7   8
BRANCH   7  11
ATOM     11  N1  UNL     1       0.247  -1.305   2.276  1.00  0.00     0.249 N   
ATOM     12  H9  UNL     1       0.480  -0.929   3.197  1.00  0.00     0.199 HD  
ATOM     13  H10 UNL     1      -0.031  -2.288   2.400  1.00  0.00     0.199 HD  
BRANCH  11  14
ATOM     14  C5  UNL     1      -0.947  -0.585   1.738  1.00  0.00     0.164 C   
BRANCH  14  15
ATOM     15  C6  UNL     1      -0.742   0.901   1.645  1.00  0.00    -0.002 A   
ATOM     16  C7  UNL     1      -0.732   1.701   2.813  1.00  0.00     0.012 A   
ATOM     17  C11 UNL     1      -0.527   1.502   0.392  1.00  0.00     0.045 A   
ATOM     18  C8  UNL     1      -0.506   3.080   2.736  1.00  0.00     0.037 A   
ATOM     19  C10 UNL     1      -0.306   2.862   0.351  1.00  0.00     0.109 A   
ATOM     20  C9  UNL     1      -0.295   3.629   1.490  1.00  0.00     0.108 A   
ATOM     21  O1  UNL     1      -0.073   3.595  -0.770  1.00  0.00    -0.316 OA  
ATOM     22  O2  UNL     1      -0.059   4.941   1.230  1.00  0.00    -0.316 OA  
ATOM     23  C12 UNL     1       0.060   4.920  -0.209  1.00  0.00     0.337 C   
ENDBRANCH  14  15
ENDBRANCH  11  14
ENDBRANCH   7  11
ENDBRANCH   1   7
BRANCH   3  24
ATOM     24  C15 UNL     1       0.801  -3.192  -3.232  1.00  0.00     0.142 C   
BRANCH  24  25
ATOM     25  C16 UNL     1      -0.502  -2.687  -3.850  1.00  0.00     0.094 C   
BRANCH  25  26
ATOM     26  C17 UNL     1      -0.541  -1.197  -3.969  1.00  0.00     0.099 A   
ATOM     27  N3  UNL     1      -0.208  -0.317  -3.044  1.00  0.00    -0.244 NA  
ATOM     28  N4  UNL     1      -0.964  -0.562  -5.113  1.00  0.00    -0.308 N   
ATOM     29  C18 UNL     1      -0.402   0.915  -3.618  1.00  0.00     0.128 A   
ATOM     30  C19 UNL     1      -0.867   0.784  -4.902  1.00  0.00     0.093 A   
ATOM     31  H25 UNL     1      -1.281  -1.011  -5.963  1.00  0.00     0.153 HD  
ENDBRANCH  25  26
ENDBRANCH  24  25
ENDBRANCH   3  24
TORSDOF 8
