REMARK SMILES CC(C)C[C@H]([NH2+]Cc1ccc2c(c1)OCO2)c1cn(CCc2ccnn2C)nn1
REMARK SMILES IDX 17 1 18 2 19 3 28 4 29 5 5 7 4 8 2 9 1 10 3 11 6 12 7 15
REMARK SMILES IDX 8 16 9 17 13 18 10 19 12 20 11 21 14 22 16 23 15 24 20 25
REMARK SMILES IDX 21 26 22 27 23 28 26 29 24 30 25 31 27 32
REMARK H PARENT 18 6 6 13 6 14
ROOT
ATOM     1   C14 UNL     1      -1.777   0.210  -1.315  1.00  0.00     0.127 A   
ATOM     2   C15 UNL     1      -3.008  -0.218  -0.867  1.00  0.00     0.045 A   
ATOM     3   N2  UNL     1      -3.807   0.887  -0.983  1.00  0.00    -0.212 N   
ATOM     4   N5  UNL     1      -3.159   1.881  -1.616  1.00  0.00    -0.076 NA  
ATOM     5   N6  UNL     1      -1.911   1.480  -1.819  1.00  0.00    -0.132 NA  
ATOM     6   H20 UNL     1      -3.343  -1.113  -0.361  1.00  0.00     0.083 HD  
ENDROOT
BRANCH   1   7
ATOM     7   C5  UNL     1      -0.417  -0.400  -1.186  1.00  0.00     0.114 C   
BRANCH   7   8
ATOM     8   C4  UNL     1      -0.400  -1.915  -0.883  1.00  0.00     0.064 C   
BRANCH   8   9
ATOM     9   C2  UNL     1      -0.497  -2.823  -2.133  1.00  0.00    -0.012 C   
ATOM     10  C1  UNL     1      -0.317  -4.287  -1.718  1.00  0.00     0.007 C   
ATOM     11  C3  UNL     1      -1.801  -2.675  -2.914  1.00  0.00     0.007 C   
ENDBRANCH   8   9
ENDBRANCH   7   8
BRANCH   7  12
ATOM     12  N1  UNL     1       0.347   0.293  -0.074  1.00  0.00     0.249 N   
ATOM     13  H11 UNL     1       1.102  -0.300   0.282  1.00  0.00     0.199 HD  
ATOM     14  H12 UNL     1      -0.284   0.456   0.741  1.00  0.00     0.199 HD  
BRANCH  12  15
ATOM     15  C6  UNL     1       0.937   1.613  -0.436  1.00  0.00     0.164 C   
BRANCH  15  16
ATOM     16  C7  UNL     1       2.165   1.901   0.388  1.00  0.00    -0.002 A   
ATOM     17  C8  UNL     1       3.452   1.774  -0.186  1.00  0.00     0.012 A   
ATOM     18  C12 UNL     1       2.048   2.255   1.743  1.00  0.00     0.045 A   
ATOM     19  C9  UNL     1       4.606   2.006   0.571  1.00  0.00     0.037 A   
ATOM     20  C11 UNL     1       3.204   2.479   2.461  1.00  0.00     0.109 A   
ATOM     21  C10 UNL     1       4.448   2.358   1.893  1.00  0.00     0.108 A   
ATOM     22  O1  UNL     1       3.265   2.829   3.773  1.00  0.00    -0.316 OA  
ATOM     23  O2  UNL     1       5.449   2.617   2.773  1.00  0.00    -0.316 OA  
ATOM     24  C13 UNL     1       4.694   2.941   3.960  1.00  0.00     0.337 C   
ENDBRANCH  15  16
ENDBRANCH  12  15
ENDBRANCH   7  12
ENDBRANCH   1   7
BRANCH   3  25
ATOM     25  C16 UNL     1      -5.021   1.147  -0.229  1.00  0.00     0.140 C   
BRANCH  25  26
ATOM     26  C17 UNL     1      -4.758   1.930   1.074  1.00  0.00     0.074 C   
BRANCH  26  27
ATOM     27  C18 UNL     1      -3.575   1.393   1.827  1.00  0.00     0.031 A   
ATOM     28  C19 UNL     1      -3.415   0.254   2.588  1.00  0.00     0.042 A   
ATOM     29  N4  UNL     1      -2.333   1.984   1.812  1.00  0.00    -0.233 N   
ATOM     30  C20 UNL     1      -2.024   0.141   2.781  1.00  0.00     0.133 A   
ATOM     31  N3  UNL     1      -1.346   1.110   2.148  1.00  0.00    -0.190 NA  
ATOM     32  C21 UNL     1      -2.007   3.344   1.442  1.00  0.00     0.159 C   
ENDBRANCH  26  27
ENDBRANCH  25  26
ENDBRANCH   3  25
TORSDOF 9
