REMARK SMILES CC(C)[C@H]([NH2+]Cc1ccc2c(c1)OCO2)c1cn(CCc2ccc(O)cc2F)nn1
REMARK SMILES IDX 16 1 17 2 18 3 29 4 30 5 4 7 2 8 1 9 3 10 5 11 6 14 7 15
REMARK SMILES IDX 8 16 12 17 9 18 11 19 10 20 13 21 15 22 14 23 19 24 20 25
REMARK SMILES IDX 21 26 22 27 27 28 23 29 26 30 24 31 28 32 25 33
REMARK H PARENT 17 6 5 12 5 13 25 34
ROOT
ATOM     1   C13 UNL     1       0.598  -0.950  -2.370  1.00  0.00     0.127 A   
ATOM     2   C14 UNL     1       0.927  -0.127  -3.423  1.00  0.00     0.045 A   
ATOM     3   N2  UNL     1      -0.282   0.202  -3.972  1.00  0.00    -0.212 N   
ATOM     4   N3  UNL     1      -1.289  -0.420  -3.331  1.00  0.00    -0.076 NA  
ATOM     5   N4  UNL     1      -0.763  -1.121  -2.340  1.00  0.00    -0.132 NA  
ATOM     6   H18 UNL     1       1.858   0.291  -3.781  1.00  0.00     0.083 HD  
ENDROOT
BRANCH   1   7
ATOM     7   C4  UNL     1       1.438  -1.528  -1.277  1.00  0.00     0.117 C   
BRANCH   7   8
ATOM     8   C2  UNL     1       1.885  -2.982  -1.573  1.00  0.00     0.037 C   
ATOM     9   C1  UNL     1       0.746  -4.009  -1.547  1.00  0.00     0.014 C   
ATOM     10  C3  UNL     1       3.001  -3.431  -0.622  1.00  0.00     0.014 C   
ENDBRANCH   7   8
BRANCH   7  11
ATOM     11  N1  UNL     1       0.690  -1.456   0.027  1.00  0.00     0.249 N   
ATOM     12  H9  UNL     1       1.081  -2.082   0.736  1.00  0.00     0.199 HD  
ATOM     13  H10 UNL     1      -0.265  -1.793  -0.164  1.00  0.00     0.199 HD  
BRANCH  11  14
ATOM     14  C5  UNL     1       0.564  -0.086   0.602  1.00  0.00     0.164 C   
BRANCH  14  15
ATOM     15  C6  UNL     1      -0.360  -0.096   1.786  1.00  0.00    -0.002 A   
ATOM     16  C7  UNL     1      -1.758   0.022   1.592  1.00  0.00     0.012 A   
ATOM     17  C11 UNL     1       0.148  -0.277   3.083  1.00  0.00     0.045 A   
ATOM     18  C8  UNL     1      -2.640  -0.027   2.677  1.00  0.00     0.037 A   
ATOM     19  C10 UNL     1      -0.750  -0.321   4.130  1.00  0.00     0.109 A   
ATOM     20  C9  UNL     1      -2.103  -0.199   3.933  1.00  0.00     0.108 A   
ATOM     21  O1  UNL     1      -0.428  -0.488   5.439  1.00  0.00    -0.316 OA  
ATOM     22  O2  UNL     1      -2.804  -0.272   5.095  1.00  0.00    -0.316 OA  
ATOM     23  C12 UNL     1      -1.736  -0.433   6.052  1.00  0.00     0.337 C   
ENDBRANCH  14  15
ENDBRANCH  11  14
ENDBRANCH   7  11
ENDBRANCH   1   7
BRANCH   3  24
ATOM     24  C15 UNL     1      -0.553   1.206  -4.980  1.00  0.00     0.139 C   
BRANCH  24  25
ATOM     25  C16 UNL     1      -1.270   2.440  -4.415  1.00  0.00     0.060 C   
BRANCH  25  26
ATOM     26  C17 UNL     1      -0.588   3.038  -3.206  1.00  0.00    -0.010 A   
ATOM     27  C18 UNL     1      -1.200   2.984  -1.946  1.00  0.00     0.009 A   
ATOM     28  C22 UNL     1       0.683   3.615  -3.309  1.00  0.00     0.129 A   
ATOM     29  C19 UNL     1      -0.537   3.476  -0.820  1.00  0.00     0.033 A   
ATOM     30  C21 UNL     1       1.350   4.112  -2.193  1.00  0.00     0.072 A   
ATOM     31  C20 UNL     1       0.733   4.029  -0.952  1.00  0.00     0.074 A   
ATOM     32  F1  UNL     1       1.297   3.653  -4.499  1.00  0.00    -0.207 F   
BRANCH  31  33
ATOM     33  O3  UNL     1       1.353   4.465   0.180  1.00  0.00    -0.361 OA  
ATOM     34  H25 UNL     1       2.061   5.086  -0.068  1.00  0.00     0.218 HD  
ENDBRANCH  31  33
ENDBRANCH  25  26
ENDBRANCH  24  25
ENDBRANCH   3  24
TORSDOF 9
