REMARK SMILES CC(=O)c1ccccc1-n1cc([C@@H]([NH2+]Cc2ccc3c(c2)OCO3)C(C)C)nn1
REMARK SMILES IDX 10 1 11 2 12 3 28 4 29 5 9 6 4 7 5 8 6 9 8 10 7 11 2 12 1 13
REMARK SMILES IDX 3 14 13 15 14 16 15 19 16 20 17 21 21 22 18 23 20 24 19 25
REMARK SMILES IDX 22 26 24 27 23 28 25 29 26 30 27 31
REMARK H PARENT 14 17 14 18
ROOT
ATOM     1   N1  UNL     1      -2.144   0.494  -1.779  1.00  0.00    -0.180 N   
ATOM     2   C9  UNL     1      -1.217   1.332  -1.190  1.00  0.00     0.135 A   
ATOM     3   C10 UNL     1      -0.127   0.534  -0.927  1.00  0.00     0.127 A   
ATOM     4   N3  UNL     1      -0.336  -0.697  -1.476  1.00  0.00    -0.131 NA  
ATOM     5   N4  UNL     1      -1.529  -0.692  -2.048  1.00  0.00    -0.071 NA  
ENDROOT
BRANCH   1   6
ATOM     6   C8  UNL     1      -3.500   0.724  -2.136  1.00  0.00     0.068 A   
ATOM     7   C3  UNL     1      -4.317   1.702  -1.531  1.00  0.00     0.041 A   
ATOM     8   C4  UNL     1      -5.632   1.887  -2.002  1.00  0.00     0.014 A   
ATOM     9   C5  UNL     1      -6.135   1.111  -3.045  1.00  0.00     0.001 A   
ATOM     10  C7  UNL     1      -4.038  -0.077  -3.164  1.00  0.00     0.027 A   
ATOM     11  C6  UNL     1      -5.343   0.123  -3.618  1.00  0.00     0.002 A   
BRANCH   7  12
ATOM     12  C2  UNL     1      -3.934   2.460  -0.305  1.00  0.00     0.161 C   
ATOM     13  C1  UNL     1      -4.383   3.894  -0.176  1.00  0.00     0.093 C   
ATOM     14  O1  UNL     1      -3.273   1.911   0.576  1.00  0.00    -0.294 OA  
ENDBRANCH   7  12
ENDBRANCH   1   6
BRANCH   3  15
ATOM     15  C11 UNL     1       1.116   0.815  -0.148  1.00  0.00     0.117 C   
BRANCH  15  16
ATOM     16  N2  UNL     1       1.597  -0.425   0.555  1.00  0.00     0.249 N   
ATOM     17  H10 UNL     1       1.649  -1.178  -0.146  1.00  0.00     0.199 HD  
ATOM     18  H11 UNL     1       2.543  -0.301   0.929  1.00  0.00     0.199 HD  
BRANCH  16  19
ATOM     19  C12 UNL     1       0.716  -0.915   1.659  1.00  0.00     0.164 C   
BRANCH  19  20
ATOM     20  C13 UNL     1       1.373  -2.065   2.371  1.00  0.00    -0.002 A   
ATOM     21  C14 UNL     1       1.364  -3.360   1.795  1.00  0.00     0.012 A   
ATOM     22  C18 UNL     1       2.037  -1.853   3.589  1.00  0.00     0.045 A   
ATOM     23  C15 UNL     1       2.015  -4.428   2.422  1.00  0.00     0.037 A   
ATOM     24  C17 UNL     1       2.662  -2.929   4.183  1.00  0.00     0.109 A   
ATOM     25  C16 UNL     1       2.658  -4.179   3.612  1.00  0.00     0.108 A   
ATOM     26  O2  UNL     1       3.335  -2.896   5.363  1.00  0.00    -0.316 OA  
ATOM     27  O3  UNL     1       3.340  -5.088   4.353  1.00  0.00    -0.316 OA  
ATOM     28  C19 UNL     1       3.748  -4.276   5.479  1.00  0.00     0.337 C   
ENDBRANCH  19  20
ENDBRANCH  16  19
ENDBRANCH  15  16
BRANCH  15  29
ATOM     29  C20 UNL     1       2.244   1.409  -1.031  1.00  0.00     0.037 C   
ATOM     30  C21 UNL     1       2.838   0.415  -2.037  1.00  0.00     0.014 C   
ATOM     31  C22 UNL     1       3.369   2.014  -0.182  1.00  0.00     0.014 C   
ENDBRANCH  15  29
ENDBRANCH   3  15
TORSDOF 7
