REMARK SMILES CC(C)(C)[C@H]([NH2+]Cc1ccc2c(c1)OCO2)c1cn(C[C@@H]2NCCc3occc32)nn1
REMARK SMILES IDX 17 1 18 2 19 3 30 4 31 5 5 7 2 8 1 9 3 10 4 11 6 12 7 15
REMARK SMILES IDX 8 16 9 17 13 18 10 19 12 20 11 21 14 22 16 23 15 24 20 25
REMARK SMILES IDX 21 26 22 27 29 28 23 29 25 30 28 31 24 32 26 33 27 34
REMARK H PARENT 18 6 6 13 6 14 22 35
ROOT
ATOM     1   C14 UNL     1       0.881   0.895  -1.128  1.00  0.00     0.127 A   
ATOM     2   C15 UNL     1       1.183   1.673  -0.034  1.00  0.00     0.045 A   
ATOM     3   N2  UNL     1       0.096   2.490   0.096  1.00  0.00    -0.210 N   
ATOM     4   N4  UNL     1      -0.761   2.312  -0.929  1.00  0.00    -0.076 NA  
ATOM     5   N5  UNL     1      -0.303   1.321  -1.672  1.00  0.00    -0.132 NA  
ATOM     6   H20 UNL     1       1.979   1.649   0.697  1.00  0.00     0.083 HD  
ENDROOT
BRANCH   1   7
ATOM     7   C5  UNL     1       1.524  -0.356  -1.637  1.00  0.00     0.120 C   
BRANCH   7   8
ATOM     8   C2  UNL     1       2.365  -0.171  -2.945  1.00  0.00     0.010 C   
ATOM     9   C1  UNL     1       1.509   0.223  -4.167  1.00  0.00     0.017 C   
ATOM     10  C3  UNL     1       3.118  -1.478  -3.286  1.00  0.00     0.017 C   
ATOM     11  C4  UNL     1       3.437   0.921  -2.731  1.00  0.00     0.017 C   
ENDBRANCH   7   8
BRANCH   7  12
ATOM     12  N1  UNL     1       0.444  -1.393  -1.835  1.00  0.00     0.250 N   
ATOM     13  H11 UNL     1       0.760  -2.186  -2.398  1.00  0.00     0.199 HD  
ATOM     14  H12 UNL     1      -0.310  -0.935  -2.370  1.00  0.00     0.199 HD  
BRANCH  12  15
ATOM     15  C6  UNL     1      -0.175  -1.914  -0.579  1.00  0.00     0.164 C   
BRANCH  15  16
ATOM     16  C7  UNL     1      -1.281  -2.874  -0.909  1.00  0.00    -0.002 A   
ATOM     17  C8  UNL     1      -2.582  -2.389  -1.179  1.00  0.00     0.012 A   
ATOM     18  C12 UNL     1      -1.019  -4.250  -1.010  1.00  0.00     0.045 A   
ATOM     19  C9  UNL     1      -3.615  -3.262  -1.531  1.00  0.00     0.037 A   
ATOM     20  C11 UNL     1      -2.060  -5.083  -1.362  1.00  0.00     0.109 A   
ATOM     21  C10 UNL     1      -3.321  -4.604  -1.614  1.00  0.00     0.108 A   
ATOM     22  O1  UNL     1      -1.976  -6.430  -1.506  1.00  0.00    -0.316 OA  
ATOM     23  O2  UNL     1      -4.193  -5.590  -1.944  1.00  0.00    -0.316 OA  
ATOM     24  C13 UNL     1      -3.341  -6.751  -1.861  1.00  0.00     0.337 C   
ENDBRANCH  15  16
ENDBRANCH  12  15
ENDBRANCH   7  12
ENDBRANCH   1   7
BRANCH   3  25
ATOM     25  C16 UNL     1      -0.260   3.349   1.208  1.00  0.00     0.157 C   
BRANCH  25  26
ATOM     26  C17 UNL     1      -0.523   2.593   2.530  1.00  0.00     0.106 C   
ATOM     27  N3  UNL     1       0.772   2.160   3.151  1.00  0.00    -0.308 NA  
ATOM     28  C23 UNL     1      -1.425   1.402   2.369  1.00  0.00    -0.001 A   
ATOM     29  C18 UNL     1       0.587   1.225   4.291  1.00  0.00     0.088 C   
ATOM     30  C20 UNL     1      -1.172   0.193   2.974  1.00  0.00     0.065 A   
ATOM     31  C22 UNL     1      -2.654   1.218   1.682  1.00  0.00     0.033 A   
ATOM     32  C19 UNL     1      -0.036  -0.123   3.860  1.00  0.00     0.077 C   
ATOM     33  O3  UNL     1      -2.108  -0.735   2.676  1.00  0.00    -0.322 OA  
ATOM     34  C21 UNL     1      -3.029  -0.093   1.904  1.00  0.00     0.136 A   
ATOM     35  H24 UNL     1       1.244   2.994   3.509  1.00  0.00     0.123 HD  
ENDBRANCH  25  26
ENDBRANCH   3  25
TORSDOF 7
