REMARK SMILES CC(C)(C)[C@H]([NH2+]Cc1ccc2c(c1)OCO2)c1cn(C[C@H]2NCCc3occc32)nn1
REMARK SMILES IDX 17 1 18 2 19 3 30 4 31 5 5 7 2 8 1 9 3 10 4 11 6 12 7 15
REMARK SMILES IDX 8 16 9 17 13 18 10 19 12 20 11 21 14 22 16 23 15 24 20 25
REMARK SMILES IDX 21 26 22 27 29 28 23 29 25 30 28 31 24 32 26 33 27 34
REMARK H PARENT 18 6 6 13 6 14 22 35
ROOT
ATOM     1   C14 UNL     1       0.855   0.483  -0.060  1.00  0.00     0.127 A   
ATOM     2   C15 UNL     1      -0.415  -0.050  -0.037  1.00  0.00     0.045 A   
ATOM     3   N2  UNL     1      -0.299  -1.206  -0.757  1.00  0.00    -0.210 N   
ATOM     4   N4  UNL     1       0.966  -1.387  -1.180  1.00  0.00    -0.076 NA  
ATOM     5   N5  UNL     1       1.682  -0.355  -0.765  1.00  0.00    -0.132 NA  
ATOM     6   H20 UNL     1      -1.345   0.261   0.417  1.00  0.00     0.083 HD  
ENDROOT
BRANCH   1   7
ATOM     7   C5  UNL     1       1.440   1.687   0.614  1.00  0.00     0.120 C   
BRANCH   7   8
ATOM     8   C2  UNL     1       1.536   2.953  -0.304  1.00  0.00     0.010 C   
ATOM     9   C1  UNL     1       2.030   4.167   0.516  1.00  0.00     0.017 C   
ATOM     10  C3  UNL     1       0.136   3.319  -0.850  1.00  0.00     0.017 C   
ATOM     11  C4  UNL     1       2.484   2.755  -1.504  1.00  0.00     0.017 C   
ENDBRANCH   7   8
BRANCH   7  12
ATOM     12  N1  UNL     1       2.811   1.303   1.149  1.00  0.00     0.250 N   
ATOM     13  H11 UNL     1       3.129   0.519   0.556  1.00  0.00     0.199 HD  
ATOM     14  H12 UNL     1       3.495   2.047   1.001  1.00  0.00     0.199 HD  
BRANCH  12  15
ATOM     15  C6  UNL     1       2.870   0.864   2.573  1.00  0.00     0.164 C   
BRANCH  15  16
ATOM     16  C7  UNL     1       2.016  -0.334   2.885  1.00  0.00    -0.002 A   
ATOM     17  C8  UNL     1       2.367  -1.615   2.394  1.00  0.00     0.012 A   
ATOM     18  C12 UNL     1       0.832  -0.182   3.627  1.00  0.00     0.045 A   
ATOM     19  C9  UNL     1       1.545  -2.724   2.623  1.00  0.00     0.037 A   
ATOM     20  C11 UNL     1       0.045  -1.296   3.835  1.00  0.00     0.109 A   
ATOM     21  C10 UNL     1       0.390  -2.531   3.345  1.00  0.00     0.108 A   
ATOM     22  O1  UNL     1      -1.133  -1.314   4.511  1.00  0.00    -0.316 OA  
ATOM     23  O2  UNL     1      -0.528  -3.483   3.652  1.00  0.00    -0.316 OA  
ATOM     24  C13 UNL     1      -1.468  -2.719   4.438  1.00  0.00     0.337 C   
ENDBRANCH  15  16
ENDBRANCH  12  15
ENDBRANCH   7  12
ENDBRANCH   1   7
BRANCH   3  25
ATOM     25  C16 UNL     1      -1.325  -2.189  -1.039  1.00  0.00     0.157 C   
BRANCH  25  26
ATOM     26  C17 UNL     1      -1.664  -2.297  -2.537  1.00  0.00     0.106 C   
ATOM     27  N3  UNL     1      -2.621  -3.417  -2.789  1.00  0.00    -0.308 NA  
ATOM     28  C23 UNL     1      -2.249  -1.039  -3.103  1.00  0.00    -0.001 A   
ATOM     29  C18 UNL     1      -4.024  -3.103  -2.410  1.00  0.00     0.088 C   
ATOM     30  C20 UNL     1      -3.595  -0.890  -3.349  1.00  0.00     0.065 A   
ATOM     31  C22 UNL     1      -1.659   0.181  -3.519  1.00  0.00     0.033 A   
ATOM     32  C19 UNL     1      -4.644  -1.915  -3.184  1.00  0.00     0.077 C   
ATOM     33  O3  UNL     1      -3.885   0.330  -3.850  1.00  0.00    -0.322 OA  
ATOM     34  C21 UNL     1      -2.694   0.981  -3.957  1.00  0.00     0.136 A   
ATOM     35  H24 UNL     1      -2.608  -3.608  -3.794  1.00  0.00     0.123 HD  
ENDBRANCH  25  26
ENDBRANCH   3  25
TORSDOF 7
