REMARK SMILES Cc1cccc(C)c1[C@@H](CO)n1cc([C@@H]([NH2+]Cc2ccc3c(c2)OCO3)C(C)(C)C)nn1
REMARK SMILES IDX 12 1 13 2 14 3 31 4 32 5 9 7 8 8 2 9 3 10 4 11 6 12 5 13
REMARK SMILES IDX 1 14 7 15 10 16 11 17 15 19 16 20 17 23 18 24 19 25 23 26
REMARK SMILES IDX 20 27 22 28 21 29 24 30 26 31 25 32 27 33 28 34 29 35 30 36
REMARK H PARENT 13 6 11 18 16 21 16 22
ROOT
ATOM     1   N1  UNL     1       0.028  -1.561   1.803  1.00  0.00    -0.202 N   
ATOM     2   C11 UNL     1       0.729  -0.384   1.911  1.00  0.00     0.046 A   
ATOM     3   C12 UNL     1       0.240   0.395   0.887  1.00  0.00     0.127 A   
ATOM     4   N3  UNL     1      -0.675  -0.331   0.169  1.00  0.00    -0.132 NA  
ATOM     5   N4  UNL     1      -0.779  -1.527   0.722  1.00  0.00    -0.075 NA  
ATOM     6   H14 UNL     1       1.454  -0.220   2.696  1.00  0.00     0.083 HD  
ENDROOT
BRANCH   1   7
ATOM     7   C9  UNL     1       0.127  -2.730   2.683  1.00  0.00     0.156 C   
BRANCH   7   8
ATOM     8   C8  UNL     1      -0.371  -2.408   4.101  1.00  0.00    -0.017 A   
ATOM     9   C2  UNL     1      -1.677  -1.907   4.362  1.00  0.00    -0.046 A   
ATOM     10  C3  UNL     1      -2.051  -1.596   5.682  1.00  0.00     0.004 A   
ATOM     11  C4  UNL     1      -1.182  -1.799   6.746  1.00  0.00     0.001 A   
ATOM     12  C6  UNL     1       0.498  -2.639   5.208  1.00  0.00    -0.046 A   
ATOM     13  C5  UNL     1       0.081  -2.322   6.511  1.00  0.00     0.004 A   
ATOM     14  C1  UNL     1      -2.708  -1.633   3.296  1.00  0.00     0.045 C   
ATOM     15  C7  UNL     1       1.884  -3.218   5.052  1.00  0.00     0.045 C   
ENDBRANCH   7   8
BRANCH   7  16
ATOM     16  C10 UNL     1      -0.472  -4.033   2.118  1.00  0.00     0.185 C   
BRANCH  16  17
ATOM     17  O1  UNL     1       0.430  -4.616   1.170  1.00  0.00    -0.394 OA  
ATOM     18  H13 UNL     1      -0.004  -5.418   0.823  1.00  0.00     0.210 HD  
ENDBRANCH  16  17
ENDBRANCH   7  16
ENDBRANCH   1   7
BRANCH   3  19
ATOM     19  C13 UNL     1       0.584   1.784   0.440  1.00  0.00     0.120 C   
BRANCH  19  20
ATOM     20  N2  UNL     1       0.425   1.853  -1.062  1.00  0.00     0.250 N   
ATOM     21  H16 UNL     1      -0.449   1.351  -1.284  1.00  0.00     0.199 HD  
ATOM     22  H17 UNL     1       0.297   2.807  -1.407  1.00  0.00     0.199 HD  
BRANCH  20  23
ATOM     23  C14 UNL     1       1.508   1.197  -1.848  1.00  0.00     0.164 C   
BRANCH  23  24
ATOM     24  C15 UNL     1       1.172   1.216  -3.312  1.00  0.00    -0.002 A   
ATOM     25  C16 UNL     1       1.619   2.273  -4.139  1.00  0.00     0.012 A   
ATOM     26  C20 UNL     1       0.356   0.206  -3.856  1.00  0.00     0.045 A   
ATOM     27  C17 UNL     1       1.268   2.322  -5.492  1.00  0.00     0.037 A   
ATOM     28  C19 UNL     1       0.028   0.286  -5.193  1.00  0.00     0.109 A   
ATOM     29  C18 UNL     1       0.470   1.314  -5.988  1.00  0.00     0.108 A   
ATOM     30  O2  UNL     1      -0.746  -0.601  -5.871  1.00  0.00    -0.316 OA  
ATOM     31  O3  UNL     1       0.032   1.202  -7.270  1.00  0.00    -0.316 OA  
ATOM     32  C21 UNL     1      -0.727  -0.023  -7.197  1.00  0.00     0.337 C   
ENDBRANCH  23  24
ENDBRANCH  20  23
ENDBRANCH  19  20
BRANCH  19  33
ATOM     33  C22 UNL     1      -0.269   2.906   1.129  1.00  0.00     0.010 C   
ATOM     34  C23 UNL     1      -0.122   2.824   2.666  1.00  0.00     0.017 C   
ATOM     35  C24 UNL     1      -1.768   2.811   0.782  1.00  0.00     0.017 C   
ATOM     36  C25 UNL     1       0.240   4.305   0.708  1.00  0.00     0.017 C   
ENDBRANCH  19  33
ENDBRANCH   3  19
TORSDOF 9
