REMARK SMILES Cc1cccc(C)c1[C@H](CO)n1cc([C@@H]([NH2+]Cc2ccc3c(c2)OCO3)C(C)(C)C)nn1
REMARK SMILES IDX 12 1 13 2 14 3 31 4 32 5 9 7 8 8 2 9 3 10 4 11 6 12 5 13
REMARK SMILES IDX 1 14 7 15 10 16 11 17 15 19 16 20 17 23 18 24 19 25 23 26
REMARK SMILES IDX 20 27 22 28 21 29 24 30 26 31 25 32 27 33 28 34 29 35 30 36
REMARK H PARENT 13 6 11 18 16 21 16 22
ROOT
ATOM     1   N1  UNL     1      -1.338   1.023  -0.885  1.00  0.00    -0.202 N   
ATOM     2   C11 UNL     1      -0.315   1.168   0.020  1.00  0.00     0.046 A   
ATOM     3   C12 UNL     1       0.741   0.493  -0.548  1.00  0.00     0.127 A   
ATOM     4   N3  UNL     1       0.338  -0.038  -1.748  1.00  0.00    -0.132 NA  
ATOM     5   N4  UNL     1      -0.928   0.293  -1.944  1.00  0.00    -0.075 NA  
ATOM     6   H14 UNL     1      -0.445   1.709   0.948  1.00  0.00     0.083 HD  
ENDROOT
BRANCH   1   7
ATOM     7   C9  UNL     1      -2.690   1.581  -0.791  1.00  0.00     0.156 C   
BRANCH   7   8
ATOM     8   C8  UNL     1      -3.412   1.070   0.471  1.00  0.00    -0.017 A   
ATOM     9   C2  UNL     1      -3.566  -0.317   0.759  1.00  0.00    -0.046 A   
ATOM     10  C3  UNL     1      -4.199  -0.714   1.952  1.00  0.00     0.004 A   
ATOM     11  C4  UNL     1      -4.706   0.220   2.845  1.00  0.00     0.001 A   
ATOM     12  C6  UNL     1      -3.954   2.015   1.391  1.00  0.00    -0.046 A   
ATOM     13  C5  UNL     1      -4.587   1.573   2.565  1.00  0.00     0.004 A   
ATOM     14  C1  UNL     1      -3.043  -1.430  -0.115  1.00  0.00     0.045 C   
ATOM     15  C7  UNL     1      -3.886   3.507   1.170  1.00  0.00     0.045 C   
ENDBRANCH   7   8
BRANCH   7  16
ATOM     16  C10 UNL     1      -3.542   1.450  -2.073  1.00  0.00     0.185 C   
BRANCH  16  17
ATOM     17  O1  UNL     1      -4.550   2.465  -2.103  1.00  0.00    -0.394 OA  
ATOM     18  H13 UNL     1      -5.120   2.285  -2.871  1.00  0.00     0.210 HD  
ENDBRANCH  16  17
ENDBRANCH   7  16
ENDBRANCH   1   7
BRANCH   3  19
ATOM     19  C13 UNL     1       2.125   0.210  -0.043  1.00  0.00     0.120 C   
BRANCH  19  20
ATOM     20  N2  UNL     1       2.551  -1.151  -0.540  1.00  0.00     0.250 N   
ATOM     21  H16 UNL     1       2.299  -1.193  -1.539  1.00  0.00     0.199 HD  
ATOM     22  H17 UNL     1       3.564  -1.286  -0.497  1.00  0.00     0.199 HD  
BRANCH  20  23
ATOM     23  C14 UNL     1       1.892  -2.310   0.126  1.00  0.00     0.164 C   
BRANCH  23  24
ATOM     24  C15 UNL     1       2.357  -3.595  -0.500  1.00  0.00    -0.002 A   
ATOM     25  C16 UNL     1       1.655  -4.144  -1.600  1.00  0.00     0.012 A   
ATOM     26  C20 UNL     1       3.534  -4.216  -0.047  1.00  0.00     0.045 A   
ATOM     27  C17 UNL     1       2.115  -5.300  -2.238  1.00  0.00     0.037 A   
ATOM     28  C19 UNL     1       3.960  -5.354  -0.702  1.00  0.00     0.109 A   
ATOM     29  C18 UNL     1       3.272  -5.880  -1.767  1.00  0.00     0.108 A   
ATOM     30  O2  UNL     1       5.079  -6.065  -0.402  1.00  0.00    -0.316 OA  
ATOM     31  O3  UNL     1       3.869  -6.991  -2.270  1.00  0.00    -0.316 OA  
ATOM     32  C21 UNL     1       5.005  -7.119  -1.389  1.00  0.00     0.337 C   
ENDBRANCH  23  24
ENDBRANCH  20  23
ENDBRANCH  19  20
BRANCH  19  33
ATOM     33  C22 UNL     1       3.189   1.292  -0.441  1.00  0.00     0.010 C   
ATOM     34  C23 UNL     1       2.758   2.682   0.081  1.00  0.00     0.017 C   
ATOM     35  C24 UNL     1       4.555   0.972   0.214  1.00  0.00     0.017 C   
ATOM     36  C25 UNL     1       3.395   1.389  -1.966  1.00  0.00     0.017 C   
ENDBRANCH  19  33
ENDBRANCH   3  19
TORSDOF 9
