REMARK SMILES CC(C)[C@H]([NH2+]Cc1ccc2c(c1)OCO2)c1cn(Cc2cn[nH]c2C2CC2)nn1
REMARK SMILES IDX 16 1 17 2 18 3 28 4 29 5 4 7 2 8 1 9 3 10 5 11 6 14 7 15
REMARK SMILES IDX 8 16 12 17 9 18 11 19 10 20 13 21 15 22 14 23 19 24 20 25
REMARK SMILES IDX 21 26 24 27 22 28 23 29 25 31 26 32 27 33
REMARK H PARENT 17 6 5 12 5 13 23 30
ROOT
ATOM     1   C13 UNL     1      -0.540  -0.089  -2.182  1.00  0.00     0.127 A   
ATOM     2   C14 UNL     1       0.456   0.684  -1.628  1.00  0.00     0.046 A   
ATOM     3   N2  UNL     1      -0.126   1.916  -1.488  1.00  0.00    -0.208 N   
ATOM     4   N5  UNL     1      -1.386   1.910  -1.968  1.00  0.00    -0.076 NA  
ATOM     5   N6  UNL     1      -1.658   0.683  -2.376  1.00  0.00    -0.132 NA  
ATOM     6   H18 UNL     1       1.461   0.478  -1.290  1.00  0.00     0.083 HD  
ENDROOT
BRANCH   1   7
ATOM     7   C4  UNL     1      -0.618  -1.552  -2.483  1.00  0.00     0.117 C   
BRANCH   7   8
ATOM     8   C2  UNL     1      -0.264  -1.883  -3.955  1.00  0.00     0.037 C   
ATOM     9   C1  UNL     1      -1.234  -1.299  -4.991  1.00  0.00     0.014 C   
ATOM     10  C3  UNL     1      -0.127  -3.395  -4.170  1.00  0.00     0.014 C   
ENDBRANCH   7   8
BRANCH   7  11
ATOM     11  N1  UNL     1      -2.006  -2.045  -2.135  1.00  0.00     0.249 N   
ATOM     12  H9  UNL     1      -2.594  -1.198  -2.069  1.00  0.00     0.199 HD  
ATOM     13  H10 UNL     1      -2.412  -2.587  -2.902  1.00  0.00     0.199 HD  
BRANCH  11  14
ATOM     14  C5  UNL     1      -2.149  -2.813  -0.867  1.00  0.00     0.164 C   
BRANCH  14  15
ATOM     15  C6  UNL     1      -1.593  -2.131   0.353  1.00  0.00    -0.002 A   
ATOM     16  C7  UNL     1      -2.154  -0.923   0.833  1.00  0.00     0.012 A   
ATOM     17  C11 UNL     1      -0.494  -2.692   1.027  1.00  0.00     0.045 A   
ATOM     18  C8  UNL     1      -1.622  -0.278   1.956  1.00  0.00     0.037 A   
ATOM     19  C10 UNL     1       0.003  -2.033   2.132  1.00  0.00     0.109 A   
ATOM     20  C9  UNL     1      -0.543  -0.858   2.584  1.00  0.00     0.108 A   
ATOM     21  O1  UNL     1       1.057  -2.442   2.885  1.00  0.00    -0.316 OA  
ATOM     22  O2  UNL     1       0.101  -0.377   3.680  1.00  0.00    -0.316 OA  
ATOM     23  C12 UNL     1       1.070  -1.423   3.909  1.00  0.00     0.337 C   
ENDBRANCH  14  15
ENDBRANCH  11  14
ENDBRANCH   7  11
ENDBRANCH   1   7
BRANCH   3  24
ATOM     24  C15 UNL     1       0.433   3.119  -0.890  1.00  0.00     0.172 C   
BRANCH  24  25
ATOM     25  C16 UNL     1       0.039   3.212   0.539  1.00  0.00     0.010 A   
ATOM     26  C17 UNL     1      -1.257   3.479   1.047  1.00  0.00     0.138 A   
ATOM     27  C18 UNL     1       0.807   3.078   1.677  1.00  0.00     0.034 A   
ATOM     28  N3  UNL     1      -1.302   3.480   2.380  1.00  0.00    -0.192 NA  
ATOM     29  N4  UNL     1      -0.028   3.257   2.742  1.00  0.00    -0.242 N   
ATOM     30  H22 UNL     1       0.200   3.234   3.731  1.00  0.00     0.175 HD  
BRANCH  27  31
ATOM     31  C19 UNL     1       2.329   2.816   1.747  1.00  0.00     0.036 C   
ATOM     32  C20 UNL     1       2.896   2.003   2.878  1.00  0.00     0.010 C   
ATOM     33  C21 UNL     1       2.828   1.418   1.498  1.00  0.00     0.010 C   
ENDBRANCH  27  31
ENDBRANCH  24  25
ENDBRANCH   3  24
TORSDOF 8
