REMARK SMILES CCn1ccc(CCn2cc([C@@H]([NH2+]Cc3ccc4c(c3)OCO4)C(C)(C)C)nn2)n1
REMARK SMILES IDX 9 1 10 2 11 3 28 4 29 5 8 7 7 8 6 9 3 10 4 11 30 12 5 13
REMARK SMILES IDX 2 14 1 15 12 16 13 17 14 20 15 21 16 22 20 23 17 24 19 25
REMARK SMILES IDX 18 26 21 27 23 28 22 29 24 30 25 31 26 32 27 33
REMARK H PARENT 10 6 13 18 13 19
ROOT
ATOM     1   N2  UNL     1       2.962  -0.652   2.143  1.00  0.00    -0.212 N   
ATOM     2   C8  UNL     1       1.808  -0.020   2.507  1.00  0.00     0.045 A   
ATOM     3   C9  UNL     1       0.835  -0.698   1.807  1.00  0.00     0.127 A   
ATOM     4   N4  UNL     1       1.407  -1.747   1.134  1.00  0.00    -0.132 NA  
ATOM     5   N5  UNL     1       2.709  -1.718   1.362  1.00  0.00    -0.076 NA  
ATOM     6   H12 UNL     1       1.806   0.882   3.104  1.00  0.00     0.083 HD  
ENDROOT
BRANCH   1   7
ATOM     7   C7  UNL     1       4.326  -0.235   2.392  1.00  0.00     0.140 C   
BRANCH   7   8
ATOM     8   C6  UNL     1       4.919   0.523   1.207  1.00  0.00     0.079 C   
BRANCH   8   9
ATOM     9   C5  UNL     1       4.430   1.933   1.102  1.00  0.00     0.062 A   
ATOM     10  N1  UNL     1       3.177   3.572   0.619  1.00  0.00    -0.233 N   
ATOM     11  C3  UNL     1       4.296   4.141   1.150  1.00  0.00     0.097 A   
ATOM     12  N6  UNL     1       3.212   2.220   0.610  1.00  0.00    -0.187 NA  
ATOM     13  C4  UNL     1       5.135   3.103   1.470  1.00  0.00     0.042 A   
BRANCH  10  14
ATOM     14  C2  UNL     1       2.023   4.276   0.096  1.00  0.00     0.128 C   
ATOM     15  C1  UNL     1       0.925   4.416   1.134  1.00  0.00     0.027 C   
ENDBRANCH  10  14
ENDBRANCH   8   9
ENDBRANCH   7   8
ENDBRANCH   1   7
BRANCH   3  16
ATOM     16  C10 UNL     1      -0.592  -0.343   1.544  1.00  0.00     0.120 C   
BRANCH  16  17
ATOM     17  N3  UNL     1      -0.814  -0.364   0.048  1.00  0.00     0.250 N   
ATOM     18  H14 UNL     1      -1.804  -0.304  -0.198  1.00  0.00     0.199 HD  
ATOM     19  H15 UNL     1      -0.478  -1.277  -0.291  1.00  0.00     0.199 HD  
BRANCH  17  20
ATOM     20  C11 UNL     1      -0.058   0.677  -0.710  1.00  0.00     0.164 C   
BRANCH  20  21
ATOM     21  C12 UNL     1      -0.421   0.638  -2.168  1.00  0.00    -0.002 A   
ATOM     22  C13 UNL     1       0.287  -0.208  -3.054  1.00  0.00     0.012 A   
ATOM     23  C17 UNL     1      -1.492   1.410  -2.652  1.00  0.00     0.045 A   
ATOM     24  C14 UNL     1      -0.054  -0.276  -4.409  1.00  0.00     0.037 A   
ATOM     25  C16 UNL     1      -1.801   1.320  -3.993  1.00  0.00     0.109 A   
ATOM     26  C15 UNL     1      -1.101   0.504  -4.848  1.00  0.00     0.108 A   
ATOM     27  O1  UNL     1      -2.794   2.002  -4.622  1.00  0.00    -0.316 OA  
ATOM     28  O2  UNL     1      -1.565   0.571  -6.123  1.00  0.00    -0.316 OA  
ATOM     29  C18 UNL     1      -2.620   1.546  -5.983  1.00  0.00     0.337 C   
ENDBRANCH  20  21
ENDBRANCH  17  20
ENDBRANCH  16  17
BRANCH  16  30
ATOM     30  C19 UNL     1      -1.638  -1.246   2.279  1.00  0.00     0.010 C   
ATOM     31  C20 UNL     1      -1.620  -2.710   1.798  1.00  0.00     0.017 C   
ATOM     32  C21 UNL     1      -1.367  -1.230   3.801  1.00  0.00     0.017 C   
ATOM     33  C22 UNL     1      -3.065  -0.689   2.066  1.00  0.00     0.017 C   
ENDBRANCH  16  30
ENDBRANCH   3  16
TORSDOF 9
