REMARK SMILES O[C@H](Cn1cc([C@@H]([NH2+]Cc2ccc3c(c2)OCO3)C2CCCCC2)nn1)c1ccccc1Cl
REMARK SMILES IDX 4 1 5 2 6 3 25 4 26 5 3 7 2 8 1 9 27 11 28 12 32 13 29 14
REMARK SMILES IDX 31 15 30 16 33 17 7 18 8 19 9 22 10 23 11 24 15 25 12 26
REMARK SMILES IDX 14 27 13 28 16 29 18 30 17 31 19 32 20 33 24 34 21 35 23 36
REMARK SMILES IDX 22 37
REMARK H PARENT 5 6 1 10 8 20 8 21
ROOT
ATOM     1   N1  UNL     1       2.177  -0.106  -3.273  1.00  0.00    -0.209 N   
ATOM     2   C3  UNL     1       1.880  -0.589  -2.029  1.00  0.00     0.045 A   
ATOM     3   C4  UNL     1       0.873   0.241  -1.585  1.00  0.00     0.127 A   
ATOM     4   N3  UNL     1       0.636   1.208  -2.532  1.00  0.00    -0.132 NA  
ATOM     5   N4  UNL     1       1.450   0.993  -3.550  1.00  0.00    -0.076 NA  
ATOM     6   H5  UNL     1       2.372  -1.458  -1.611  1.00  0.00     0.083 HD  
ENDROOT
BRANCH   1   7
ATOM     7   C2  UNL     1       3.128  -0.621  -4.230  1.00  0.00     0.170 C   
BRANCH   7   8
ATOM     8   C1  UNL     1       2.479  -1.479  -5.322  1.00  0.00     0.165 C   
BRANCH   8   9
ATOM     9   O1  UNL     1       3.458  -1.701  -6.347  1.00  0.00    -0.387 OA  
ATOM     10  H1  UNL     1       3.065  -2.315  -6.995  1.00  0.00     0.211 HD  
ENDBRANCH   8   9
BRANCH   8  11
ATOM     11  C20 UNL     1       1.993  -2.822  -4.803  1.00  0.00     0.001 A   
ATOM     12  C21 UNL     1       2.926  -3.855  -4.580  1.00  0.00     0.008 A   
ATOM     13  C25 UNL     1       0.641  -3.083  -4.509  1.00  0.00     0.046 A   
ATOM     14  C22 UNL     1       2.528  -5.096  -4.078  1.00  0.00     0.000 A   
ATOM     15  C24 UNL     1       0.246  -4.327  -4.005  1.00  0.00     0.021 A   
ATOM     16  C23 UNL     1       1.190  -5.329  -3.782  1.00  0.00     0.002 A   
ATOM     17  CL1 UNL     1      -0.597  -1.900  -4.736  1.00  0.00    -0.084 Cl  
ENDBRANCH   8  11
ENDBRANCH   7   8
ENDBRANCH   1   7
BRANCH   3  18
ATOM     18  C5  UNL     1       0.075   0.251  -0.319  1.00  0.00     0.117 C   
BRANCH  18  19
ATOM     19  N2  UNL     1      -0.536   1.615  -0.119  1.00  0.00     0.249 N   
ATOM     20  H7  UNL     1      -1.442   1.559   0.355  1.00  0.00     0.199 HD  
ATOM     21  H8  UNL     1      -0.727   1.976  -1.067  1.00  0.00     0.199 HD  
BRANCH  19  22
ATOM     22  C6  UNL     1       0.321   2.614   0.580  1.00  0.00     0.164 C   
BRANCH  22  23
ATOM     23  C7  UNL     1       0.186   2.494   2.075  1.00  0.00    -0.002 A   
ATOM     24  C8  UNL     1       1.157   1.800   2.836  1.00  0.00     0.012 A   
ATOM     25  C12 UNL     1      -0.949   3.026   2.718  1.00  0.00     0.045 A   
ATOM     26  C9  UNL     1       0.996   1.625   4.215  1.00  0.00     0.037 A   
ATOM     27  C11 UNL     1      -1.076   2.835   4.078  1.00  0.00     0.109 A   
ATOM     28  C10 UNL     1      -0.134   2.151   4.806  1.00  0.00     0.108 A   
ATOM     29  O2  UNL     1      -2.113   3.267   4.842  1.00  0.00    -0.316 OA  
ATOM     30  O3  UNL     1      -0.462   2.058   6.119  1.00  0.00    -0.316 OA  
ATOM     31  C13 UNL     1      -1.707   2.792   6.146  1.00  0.00     0.337 C   
ENDBRANCH  22  23
ENDBRANCH  19  22
ENDBRANCH  18  19
BRANCH  18  32
ATOM     32  C14 UNL     1      -1.022  -0.845  -0.308  1.00  0.00     0.043 C   
ATOM     33  C15 UNL     1      -2.187  -0.582  -1.281  1.00  0.00     0.010 C   
ATOM     34  C19 UNL     1      -1.564  -1.085   1.115  1.00  0.00     0.010 C   
ATOM     35  C16 UNL     1      -3.205  -1.721  -1.256  1.00  0.00     0.001 C   
ATOM     36  C18 UNL     1      -2.580  -2.225   1.139  1.00  0.00     0.001 C   
ATOM     37  C17 UNL     1      -3.722  -1.985   0.155  1.00  0.00     0.000 C   
ENDBRANCH  18  32
ENDBRANCH   3  18
TORSDOF 9
