REMARK SMILES O[C@@H](Cn1cc([C@@H]([NH2+]Cc2ccc3c(c2)OCO3)C2CCCCC2)nn1)c1ccccc1Cl
REMARK SMILES IDX 4 1 5 2 6 3 25 4 26 5 3 7 2 8 1 9 27 11 28 12 32 13 29 14
REMARK SMILES IDX 31 15 30 16 33 17 7 18 8 19 9 22 10 23 11 24 15 25 12 26
REMARK SMILES IDX 14 27 13 28 16 29 18 30 17 31 19 32 20 33 24 34 21 35 23 36
REMARK SMILES IDX 22 37
REMARK H PARENT 5 6 1 10 8 20 8 21
ROOT
ATOM     1   N1  UNL     1       1.608   1.077   0.906  1.00  0.00    -0.209 N   
ATOM     2   C3  UNL     1       0.559   0.333   0.443  1.00  0.00     0.045 A   
ATOM     3   C4  UNL     1      -0.534   1.151   0.623  1.00  0.00     0.127 A   
ATOM     4   N3  UNL     1      -0.128   2.316   1.223  1.00  0.00    -0.132 NA  
ATOM     5   N4  UNL     1       1.183   2.260   1.386  1.00  0.00    -0.076 NA  
ATOM     6   H5  UNL     1       0.686  -0.657   0.028  1.00  0.00     0.083 HD  
ENDROOT
BRANCH   1   7
ATOM     7   C2  UNL     1       3.018   0.731   0.928  1.00  0.00     0.170 C   
BRANCH   7   8
ATOM     8   C1  UNL     1       3.630   0.926   2.322  1.00  0.00     0.165 C   
BRANCH   8   9
ATOM     9   O1  UNL     1       3.932   2.312   2.527  1.00  0.00    -0.387 OA  
ATOM     10  H1  UNL     1       3.084   2.800   2.497  1.00  0.00     0.211 HD  
ENDBRANCH   8   9
BRANCH   8  11
ATOM     11  C20 UNL     1       4.893   0.100   2.478  1.00  0.00     0.001 A   
ATOM     12  C21 UNL     1       6.155   0.668   2.219  1.00  0.00     0.008 A   
ATOM     13  C25 UNL     1       4.845  -1.258   2.849  1.00  0.00     0.046 A   
ATOM     14  C22 UNL     1       7.324  -0.085   2.341  1.00  0.00     0.000 A   
ATOM     15  C24 UNL     1       6.017  -2.009   2.977  1.00  0.00     0.021 A   
ATOM     16  C23 UNL     1       7.256  -1.422   2.726  1.00  0.00     0.002 A   
ATOM     17  CL1 UNL     1       3.342  -2.068   3.135  1.00  0.00    -0.084 Cl  
ENDBRANCH   8  11
ENDBRANCH   7   8
ENDBRANCH   1   7
BRANCH   3  18
ATOM     18  C5  UNL     1      -1.987   0.941   0.335  1.00  0.00     0.117 C   
BRANCH  18  19
ATOM     19  N2  UNL     1      -2.825   1.594   1.413  1.00  0.00     0.249 N   
ATOM     20  H7  UNL     1      -3.793   1.705   1.096  1.00  0.00     0.199 HD  
ATOM     21  H8  UNL     1      -2.436   2.540   1.546  1.00  0.00     0.199 HD  
BRANCH  19  22
ATOM     22  C6  UNL     1      -2.819   0.928   2.749  1.00  0.00     0.164 C   
BRANCH  22  23
ATOM     23  C7  UNL     1      -3.594  -0.361   2.760  1.00  0.00    -0.002 A   
ATOM     24  C8  UNL     1      -2.917  -1.604   2.781  1.00  0.00     0.012 A   
ATOM     25  C12 UNL     1      -5.000  -0.340   2.727  1.00  0.00     0.045 A   
ATOM     26  C9  UNL     1      -3.627  -2.811   2.768  1.00  0.00     0.037 A   
ATOM     27  C11 UNL     1      -5.668  -1.547   2.719  1.00  0.00     0.109 A   
ATOM     28  C10 UNL     1      -5.002  -2.748   2.738  1.00  0.00     0.108 A   
ATOM     29  O2  UNL     1      -7.017  -1.701   2.696  1.00  0.00    -0.316 OA  
ATOM     30  O3  UNL     1      -5.847  -3.810   2.736  1.00  0.00    -0.316 OA  
ATOM     31  C13 UNL     1      -7.128  -3.143   2.736  1.00  0.00     0.337 C   
ENDBRANCH  22  23
ENDBRANCH  19  22
ENDBRANCH  18  19
BRANCH  18  32
ATOM     32  C14 UNL     1      -2.449   1.489  -1.044  1.00  0.00     0.043 C   
ATOM     33  C15 UNL     1      -1.771   0.743  -2.209  1.00  0.00     0.010 C   
ATOM     34  C19 UNL     1      -2.275   3.012  -1.214  1.00  0.00     0.010 C   
ATOM     35  C16 UNL     1      -2.280   1.226  -3.566  1.00  0.00     0.001 C   
ATOM     36  C18 UNL     1      -2.780   3.489  -2.576  1.00  0.00     0.001 C   
ATOM     37  C17 UNL     1      -2.115   2.734  -3.721  1.00  0.00     0.000 C   
ENDBRANCH  18  32
ENDBRANCH   3  18
TORSDOF 9
