REMARK SMILES Cc1cc(Cn2cc([C@@H]([NH2+]Cc3ccc4c(c3)OCO4)C(C)(C)C)nn2)cc(C)c1O
REMARK SMILES IDX 6 1 7 2 8 3 25 4 26 5 5 7 4 8 2 9 3 10 30 11 28 12 27 13
REMARK SMILES IDX 1 14 29 15 31 16 9 18 10 19 11 22 12 23 13 24 17 25 14 26
REMARK SMILES IDX 16 27 15 28 18 29 20 30 19 31 21 32 22 33 23 34 24 35
REMARK H PARENT 7 6 31 17 10 20 10 21
ROOT
ATOM     1   N1  UNL     1       2.586  -0.143  -1.185  1.00  0.00    -0.208 N   
ATOM     2   C6  UNL     1       1.243  -0.272  -1.410  1.00  0.00     0.046 A   
ATOM     3   C7  UNL     1       0.844   0.997  -1.767  1.00  0.00     0.127 A   
ATOM     4   N3  UNL     1       1.937   1.823  -1.793  1.00  0.00    -0.132 NA  
ATOM     5   N4  UNL     1       2.997   1.115  -1.441  1.00  0.00    -0.076 NA  
ATOM     6   H7  UNL     1       0.712  -1.197  -1.234  1.00  0.00     0.083 HD  
ENDROOT
BRANCH   1   7
ATOM     7   C5  UNL     1       3.492  -1.121  -0.608  1.00  0.00     0.169 C   
BRANCH   7   8
ATOM     8   C4  UNL     1       3.372  -1.107   0.896  1.00  0.00    -0.028 A   
ATOM     9   C2  UNL     1       2.289  -1.881   2.938  1.00  0.00    -0.020 A   
ATOM     10  C3  UNL     1       2.454  -1.943   1.548  1.00  0.00     0.011 A   
ATOM     11  C24 UNL     1       3.072  -0.985   3.677  1.00  0.00     0.077 A   
ATOM     12  C22 UNL     1       3.995  -0.135   3.053  1.00  0.00    -0.020 A   
ATOM     13  C21 UNL     1       4.135  -0.208   1.659  1.00  0.00     0.011 A   
ATOM     14  C1  UNL     1       1.306  -2.789   3.623  1.00  0.00     0.047 C   
ATOM     15  C23 UNL     1       4.837   0.840   3.825  1.00  0.00     0.047 C   
BRANCH  11  16
ATOM     16  O3  UNL     1       2.888  -0.973   5.033  1.00  0.00    -0.360 OA  
ATOM     17  H31 UNL     1       3.626  -0.509   5.459  1.00  0.00     0.218 HD  
ENDBRANCH  11  16
ENDBRANCH   7   8
ENDBRANCH   1   7
BRANCH   3  18
ATOM     18  C8  UNL     1      -0.526   1.565  -1.965  1.00  0.00     0.120 C   
BRANCH  18  19
ATOM     19  N2  UNL     1      -0.640   2.873  -1.202  1.00  0.00     0.250 N   
ATOM     20  H9  UNL     1      -1.530   3.332  -1.400  1.00  0.00     0.199 HD  
ATOM     21  H10 UNL     1       0.111   3.482  -1.553  1.00  0.00     0.199 HD  
BRANCH  19  22
ATOM     22  C9  UNL     1      -0.464   2.798   0.285  1.00  0.00     0.164 C   
BRANCH  22  23
ATOM     23  C10 UNL     1      -1.458   1.895   0.961  1.00  0.00    -0.002 A   
ATOM     24  C11 UNL     1      -2.824   2.256   1.038  1.00  0.00     0.012 A   
ATOM     25  C15 UNL     1      -1.037   0.663   1.494  1.00  0.00     0.045 A   
ATOM     26  C12 UNL     1      -3.761   1.399   1.625  1.00  0.00     0.037 A   
ATOM     27  C14 UNL     1      -1.986  -0.161   2.059  1.00  0.00     0.109 A   
ATOM     28  C13 UNL     1      -3.310   0.196   2.123  1.00  0.00     0.108 A   
ATOM     29  O1  UNL     1      -1.753  -1.387   2.596  1.00  0.00    -0.316 OA  
ATOM     30  O2  UNL     1      -4.076  -0.756   2.717  1.00  0.00    -0.316 OA  
ATOM     31  C16 UNL     1      -3.075  -1.739   3.060  1.00  0.00     0.337 C   
ENDBRANCH  22  23
ENDBRANCH  19  22
ENDBRANCH  18  19
BRANCH  18  32
ATOM     32  C17 UNL     1      -0.930   1.768  -3.468  1.00  0.00     0.010 C   
ATOM     33  C18 UNL     1      -0.059   2.812  -4.195  1.00  0.00     0.017 C   
ATOM     34  C19 UNL     1      -0.815   0.427  -4.228  1.00  0.00     0.017 C   
ATOM     35  C20 UNL     1      -2.406   2.220  -3.570  1.00  0.00     0.017 C   
ENDBRANCH  18  32
ENDBRANCH   3  18
TORSDOF 8
