REMARK SMILES CC(C)[C@H]([NH2+]Cc1ccc2c(c1)OCO2)c1cn([C@H](CO)c2cc(F)ccc2O)nn1
REMARK SMILES IDX 16 1 17 2 18 3 30 4 31 5 4 7 2 8 1 9 3 10 5 11 6 14 7 15
REMARK SMILES IDX 8 16 12 17 9 18 11 19 10 20 13 21 15 22 14 23 19 24 20 25
REMARK SMILES IDX 21 26 22 28 23 29 28 30 24 31 27 32 26 33 25 34 29 35
REMARK H PARENT 17 6 5 12 5 13 21 27 29 36
ROOT
ATOM     1   C13 UNL     1       0.026  -0.900  -0.712  1.00  0.00     0.127 A   
ATOM     2   C14 UNL     1      -0.739  -0.399   0.316  1.00  0.00     0.046 A   
ATOM     3   N2  UNL     1      -0.990  -1.487   1.110  1.00  0.00    -0.202 N   
ATOM     4   N3  UNL     1      -0.408  -2.594   0.595  1.00  0.00    -0.075 NA  
ATOM     5   N4  UNL     1       0.227  -2.242  -0.512  1.00  0.00    -0.132 NA  
ATOM     6   H18 UNL     1      -1.130   0.582   0.544  1.00  0.00     0.083 HD  
ENDROOT
BRANCH   1   7
ATOM     7   C4  UNL     1       0.652  -0.240  -1.895  1.00  0.00     0.117 C   
BRANCH   7   8
ATOM     8   C2  UNL     1      -0.240  -0.249  -3.165  1.00  0.00     0.037 C   
ATOM     9   C1  UNL     1      -1.490   0.621  -2.982  1.00  0.00     0.014 C   
ATOM     10  C3  UNL     1      -0.653  -1.649  -3.636  1.00  0.00     0.014 C   
ENDBRANCH   7   8
BRANCH   7  11
ATOM     11  N1  UNL     1       1.960  -0.940  -2.220  1.00  0.00     0.249 N   
ATOM     12  H9  UNL     1       1.872  -1.889  -1.819  1.00  0.00     0.199 HD  
ATOM     13  H10 UNL     1       2.060  -1.073  -3.230  1.00  0.00     0.199 HD  
BRANCH  11  14
ATOM     14  C5  UNL     1       3.201  -0.313  -1.687  1.00  0.00     0.164 C   
BRANCH  14  15
ATOM     15  C6  UNL     1       3.245  -0.182  -0.190  1.00  0.00    -0.002 A   
ATOM     16  C7  UNL     1       3.296  -1.331   0.635  1.00  0.00     0.012 A   
ATOM     17  C11 UNL     1       3.223   1.091   0.405  1.00  0.00     0.045 A   
ATOM     18  C8  UNL     1       3.307  -1.219   2.029  1.00  0.00     0.037 A   
ATOM     19  C10 UNL     1       3.243   1.167   1.782  1.00  0.00     0.109 A   
ATOM     20  C9  UNL     1       3.278   0.045   2.573  1.00  0.00     0.108 A   
ATOM     21  O1  UNL     1       3.232   2.315   2.508  1.00  0.00    -0.316 OA  
ATOM     22  O2  UNL     1       3.276   0.345   3.899  1.00  0.00    -0.316 OA  
ATOM     23  C12 UNL     1       3.323   1.790   3.849  1.00  0.00     0.337 C   
ENDBRANCH  14  15
ENDBRANCH  11  14
ENDBRANCH   7  11
ENDBRANCH   1   7
BRANCH   3  24
ATOM     24  C15 UNL     1      -1.831  -1.585   2.305  1.00  0.00     0.158 C   
BRANCH  24  25
ATOM     25  C16 UNL     1      -3.305  -1.815   1.907  1.00  0.00     0.186 C   
BRANCH  25  26
ATOM     26  O3  UNL     1      -3.827  -0.782   1.066  1.00  0.00    -0.394 OA  
ATOM     27  H22 UNL     1      -4.764  -0.997   0.900  1.00  0.00     0.210 HD  
ENDBRANCH  25  26
ENDBRANCH  24  25
BRANCH  24  28
ATOM     28  C17 UNL     1      -1.548  -0.447   3.282  1.00  0.00     0.010 A   
ATOM     29  C18 UNL     1      -2.385   0.674   3.407  1.00  0.00     0.047 A   
ATOM     30  C22 UNL     1      -0.401  -0.490   4.094  1.00  0.00     0.077 A   
ATOM     31  C19 UNL     1      -2.083   1.685   4.316  1.00  0.00     0.123 A   
ATOM     32  C21 UNL     1      -0.108   0.519   5.014  1.00  0.00     0.036 A   
ATOM     33  C20 UNL     1      -0.956   1.615   5.123  1.00  0.00     0.042 A   
ATOM     34  F1  UNL     1      -2.892   2.747   4.408  1.00  0.00    -0.207 F   
BRANCH  30  35
ATOM     35  O4  UNL     1       0.448  -1.553   3.970  1.00  0.00    -0.361 OA  
ATOM     36  H26 UNL     1       1.241  -1.391   4.511  1.00  0.00     0.218 HD  
ENDBRANCH  30  35
ENDBRANCH  24  28
ENDBRANCH   3  24
TORSDOF 10
