REMARK SMILES CC(C)[C@H]([NH2+]Cc1ccc2c(c1)OCO2)c1cn([C@@H](CO)c2cc(F)ccc2O)nn1
REMARK SMILES IDX 16 1 17 2 18 3 30 4 31 5 4 7 2 8 1 9 3 10 5 11 6 14 7 15
REMARK SMILES IDX 8 16 12 17 9 18 11 19 10 20 13 21 15 22 14 23 19 24 20 25
REMARK SMILES IDX 21 26 22 28 23 29 28 30 24 31 27 32 26 33 25 34 29 35
REMARK H PARENT 17 6 5 12 5 13 21 27 29 36
ROOT
ATOM     1   C13 UNL     1      -1.124  -1.481   0.914  1.00  0.00     0.127 A   
ATOM     2   C14 UNL     1      -0.560  -1.687   2.154  1.00  0.00     0.046 A   
ATOM     3   N2  UNL     1       0.764  -1.932   1.886  1.00  0.00    -0.202 N   
ATOM     4   N3  UNL     1       0.999  -1.841   0.559  1.00  0.00    -0.075 NA  
ATOM     5   N4  UNL     1      -0.149  -1.577  -0.042  1.00  0.00    -0.132 NA  
ATOM     6   H18 UNL     1      -0.953  -1.691   3.160  1.00  0.00     0.083 HD  
ENDROOT
BRANCH   1   7
ATOM     7   C4  UNL     1      -2.518  -1.129   0.502  1.00  0.00     0.117 C   
BRANCH   7   8
ATOM     8   C2  UNL     1      -3.418  -2.350   0.188  1.00  0.00     0.037 C   
ATOM     9   C1  UNL     1      -2.912  -3.222  -0.971  1.00  0.00     0.014 C   
ATOM     10  C3  UNL     1      -3.647  -3.227   1.433  1.00  0.00     0.014 C   
ENDBRANCH   7   8
BRANCH   7  11
ATOM     11  N1  UNL     1      -2.467  -0.246  -0.722  1.00  0.00     0.249 N   
ATOM     12  H9  UNL     1      -1.743  -0.651  -1.338  1.00  0.00     0.199 HD  
ATOM     13  H10 UNL     1      -3.342  -0.273  -1.256  1.00  0.00     0.199 HD  
BRANCH  11  14
ATOM     14  C5  UNL     1      -2.082   1.170  -0.475  1.00  0.00     0.164 C   
BRANCH  14  15
ATOM     15  C6  UNL     1      -1.602   1.816  -1.743  1.00  0.00    -0.002 A   
ATOM     16  C7  UNL     1      -0.235   1.704  -2.111  1.00  0.00     0.012 A   
ATOM     17  C11 UNL     1      -2.496   2.482  -2.596  1.00  0.00     0.045 A   
ATOM     18  C8  UNL     1       0.242   2.274  -3.300  1.00  0.00     0.037 A   
ATOM     19  C10 UNL     1      -1.999   3.021  -3.767  1.00  0.00     0.109 A   
ATOM     20  C9  UNL     1      -0.664   2.924  -4.107  1.00  0.00     0.108 A   
ATOM     21  O1  UNL     1      -2.726   3.688  -4.703  1.00  0.00    -0.316 OA  
ATOM     22  O2  UNL     1      -0.384   3.536  -5.290  1.00  0.00    -0.316 OA  
ATOM     23  C12 UNL     1      -1.691   4.027  -5.663  1.00  0.00     0.337 C   
ENDBRANCH  14  15
ENDBRANCH  11  14
ENDBRANCH   7  11
ENDBRANCH   1   7
BRANCH   3  24
ATOM     24  C15 UNL     1       1.838  -2.211   2.848  1.00  0.00     0.158 C   
BRANCH  24  25
ATOM     25  C16 UNL     1       2.410  -3.623   2.651  1.00  0.00     0.186 C   
BRANCH  25  26
ATOM     26  O3  UNL     1       1.512  -4.590   3.213  1.00  0.00    -0.394 OA  
ATOM     27  H22 UNL     1       1.937  -5.459   3.101  1.00  0.00     0.210 HD  
ENDBRANCH  25  26
ENDBRANCH  24  25
BRANCH  24  28
ATOM     28  C17 UNL     1       2.836  -1.060   2.878  1.00  0.00     0.010 A   
ATOM     29  C18 UNL     1       2.589   0.025   3.743  1.00  0.00     0.047 A   
ATOM     30  C22 UNL     1       3.976  -0.998   2.058  1.00  0.00     0.077 A   
ATOM     31  C19 UNL     1       3.459   1.114   3.777  1.00  0.00     0.123 A   
ATOM     32  C21 UNL     1       4.847   0.098   2.098  1.00  0.00     0.036 A   
ATOM     33  C20 UNL     1       4.585   1.160   2.965  1.00  0.00     0.042 A   
ATOM     34  F1  UNL     1       3.198   2.135   4.605  1.00  0.00    -0.207 F   
BRANCH  30  35
ATOM     35  O4  UNL     1       4.241  -2.028   1.205  1.00  0.00    -0.361 OA  
ATOM     36  H26 UNL     1       4.987  -1.794   0.627  1.00  0.00     0.218 HD  
ENDBRANCH  30  35
ENDBRANCH  24  28
ENDBRANCH   3  24
TORSDOF 10
