REMARK SMILES CC(C)[C@H]([NH2+]Cc1ccc2c(c1)OCO2)c1cn(-c2ccc(N([O-])[O-])cc2F)nn1
REMARK SMILES IDX 16 1 17 2 18 3 29 4 30 5 4 6 2 7 1 8 3 9 5 10 6 13 7 14 8 15
REMARK SMILES IDX 12 16 9 17 11 18 10 19 13 20 15 21 14 22 19 23 20 24 27 25
REMARK SMILES IDX 21 26 26 27 22 28 28 29 23 30 24 31 25 32
REMARK H PARENT 5 11 5 12
ROOT
ATOM     1   C13 UNL     1       0.880   1.162   0.199  1.00  0.00     0.127 A   
ATOM     2   C14 UNL     1       1.471   2.273   0.759  1.00  0.00     0.135 A   
ATOM     3   N2  UNL     1       1.024   3.344   0.009  1.00  0.00    -0.178 N   
ATOM     4   N4  UNL     1       0.160   2.876  -0.932  1.00  0.00    -0.071 NA  
ATOM     5   N5  UNL     1       0.076   1.560  -0.830  1.00  0.00    -0.131 NA  
ENDROOT
BRANCH   1   6
ATOM     6   C4  UNL     1       0.953  -0.288   0.562  1.00  0.00     0.117 C   
BRANCH   6   7
ATOM     7   C2  UNL     1       2.131  -1.050  -0.099  1.00  0.00     0.037 C   
ATOM     8   C1  UNL     1       2.109  -1.029  -1.632  1.00  0.00     0.014 C   
ATOM     9   C3  UNL     1       3.488  -0.549   0.406  1.00  0.00     0.014 C   
ENDBRANCH   6   7
BRANCH   6  10
ATOM     10  N1  UNL     1      -0.332  -0.984   0.184  1.00  0.00     0.249 N   
ATOM     11  H9  UNL     1      -0.582  -0.666  -0.765  1.00  0.00     0.199 HD  
ATOM     12  H10 UNL     1      -0.205  -2.000   0.122  1.00  0.00     0.199 HD  
BRANCH  10  13
ATOM     13  C5  UNL     1      -1.499  -0.698   1.065  1.00  0.00     0.164 C   
BRANCH  13  14
ATOM     14  C6  UNL     1      -2.731  -1.375   0.535  1.00  0.00    -0.002 A   
ATOM     15  C7  UNL     1      -3.532  -0.731  -0.438  1.00  0.00     0.012 A   
ATOM     16  C11 UNL     1      -3.063  -2.673   0.959  1.00  0.00     0.045 A   
ATOM     17  C8  UNL     1      -4.657  -1.365  -0.976  1.00  0.00     0.037 A   
ATOM     18  C10 UNL     1      -4.179  -3.269   0.408  1.00  0.00     0.109 A   
ATOM     19  C9  UNL     1      -4.954  -2.634  -0.531  1.00  0.00     0.108 A   
ATOM     20  O1  UNL     1      -4.637  -4.513   0.705  1.00  0.00    -0.316 OA  
ATOM     21  O2  UNL     1      -5.999  -3.398  -0.942  1.00  0.00    -0.316 OA  
ATOM     22  C12 UNL     1      -5.810  -4.582  -0.138  1.00  0.00     0.337 C   
ENDBRANCH  13  14
ENDBRANCH  10  13
ENDBRANCH   6  10
ENDBRANCH   1   6
BRANCH   3  23
ATOM     23  C15 UNL     1       1.324   4.725   0.112  1.00  0.00     0.093 A   
ATOM     24  C16 UNL     1       0.732   5.629  -0.789  1.00  0.00     0.031 A   
ATOM     25  C20 UNL     1       2.198   5.216   1.087  1.00  0.00     0.148 A   
ATOM     26  C17 UNL     1       1.015   6.998  -0.708  1.00  0.00     0.033 A   
ATOM     27  C19 UNL     1       2.487   6.577   1.178  1.00  0.00     0.072 A   
ATOM     28  C18 UNL     1       1.893   7.467   0.277  1.00  0.00     0.121 A   
ATOM     29  F1  UNL     1       2.789   4.404   1.972  1.00  0.00    -0.205 F   
BRANCH  28  30
ATOM     30  N3  UNL     1       2.193   8.901   0.367  1.00  0.00     0.092 N   
ATOM     31  O3  UNL     1       1.648   9.653  -0.452  1.00  0.00    -0.138 OA  
ATOM     32  O4  UNL     1       2.971   9.267   1.258  1.00  0.00    -0.138 OA  
ENDBRANCH  28  30
ENDBRANCH   3  23
TORSDOF 7
