REMARK SMILES CC(C)C[C@H]([NH2+]Cc1ccc2c(c1)OCO2)c1cn(Cc2n[nH]c3c2CCCN3)nn1
REMARK SMILES IDX 17 1 18 2 19 3 30 4 31 5 5 7 4 8 2 9 1 10 3 11 6 12 7 15
REMARK SMILES IDX 8 16 9 17 13 18 10 19 12 20 11 21 14 22 16 23 15 24 20 25
REMARK SMILES IDX 21 26 22 27 25 28 23 29 24 30 26 31 29 32 27 33 28 34
REMARK H PARENT 18 6 6 13 6 14 23 35 29 36
ROOT
ATOM     1   C14 UNL     1      -0.753  -0.788  -0.742  1.00  0.00     0.127 A   
ATOM     2   C15 UNL     1      -1.856  -1.126   0.005  1.00  0.00     0.046 A   
ATOM     3   N2  UNL     1      -1.456  -2.229   0.711  1.00  0.00    -0.206 N   
ATOM     4   N6  UNL     1      -0.191  -2.567   0.392  1.00  0.00    -0.076 NA  
ATOM     5   N7  UNL     1       0.249  -1.694  -0.500  1.00  0.00    -0.132 NA  
ATOM     6   H20 UNL     1      -2.837  -0.689   0.138  1.00  0.00     0.083 HD  
ENDROOT
BRANCH   1   7
ATOM     7   C5  UNL     1      -0.492   0.375  -1.644  1.00  0.00     0.114 C   
BRANCH   7   8
ATOM     8   C4  UNL     1      -0.828   0.021  -3.106  1.00  0.00     0.064 C   
BRANCH   8   9
ATOM     9   C2  UNL     1      -0.631   1.141  -4.150  1.00  0.00    -0.012 C   
ATOM     10  C1  UNL     1      -1.066   0.638  -5.530  1.00  0.00     0.007 C   
ATOM     11  C3  UNL     1      -1.399   2.415  -3.799  1.00  0.00     0.007 C   
ENDBRANCH   8   9
ENDBRANCH   7   8
BRANCH   7  12
ATOM     12  N1  UNL     1       0.955   0.775  -1.543  1.00  0.00     0.249 N   
ATOM     13  H11 UNL     1       1.249   1.377  -2.317  1.00  0.00     0.199 HD  
ATOM     14  H12 UNL     1       1.503  -0.095  -1.624  1.00  0.00     0.199 HD  
BRANCH  12  15
ATOM     15  C6  UNL     1       1.342   1.426  -0.258  1.00  0.00     0.164 C   
BRANCH  15  16
ATOM     16  C7  UNL     1       2.834   1.572  -0.173  1.00  0.00    -0.002 A   
ATOM     17  C8  UNL     1       3.633   0.455   0.183  1.00  0.00     0.012 A   
ATOM     18  C12 UNL     1       3.451   2.797  -0.482  1.00  0.00     0.045 A   
ATOM     19  C9  UNL     1       5.027   0.555   0.230  1.00  0.00     0.037 A   
ATOM     20  C11 UNL     1       4.829   2.861  -0.422  1.00  0.00     0.109 A   
ATOM     21  C10 UNL     1       5.595   1.773  -0.078  1.00  0.00     0.108 A   
ATOM     22  O1  UNL     1       5.580   3.963  -0.685  1.00  0.00    -0.316 OA  
ATOM     23  O2  UNL     1       6.924   2.053  -0.081  1.00  0.00    -0.316 OA  
ATOM     24  C13 UNL     1       6.912   3.445  -0.464  1.00  0.00     0.337 C   
ENDBRANCH  15  16
ENDBRANCH  12  15
ENDBRANCH   7  12
ENDBRANCH   1   7
BRANCH   3  25
ATOM     25  C16 UNL     1      -2.209  -2.989   1.695  1.00  0.00     0.192 C   
BRANCH  25  26
ATOM     26  C17 UNL     1      -2.374  -2.182   2.937  1.00  0.00     0.084 A   
ATOM     27  N3  UNL     1      -3.435  -1.364   3.080  1.00  0.00    -0.186 NA  
ATOM     28  C19 UNL     1      -1.521  -2.127   4.067  1.00  0.00     0.014 A   
ATOM     29  N4  UNL     1      -3.274  -0.831   4.315  1.00  0.00    -0.225 N   
ATOM     30  C18 UNL     1      -2.129  -1.244   4.920  1.00  0.00     0.107 A   
ATOM     31  C20 UNL     1      -0.249  -2.805   4.427  1.00  0.00     0.042 C   
ATOM     32  N5  UNL     1      -1.671  -0.850   6.128  1.00  0.00    -0.331 N   
ATOM     33  C21 UNL     1       0.442  -2.037   5.574  1.00  0.00     0.024 C   
ATOM     34  C22 UNL     1      -0.557  -1.638   6.680  1.00  0.00     0.103 C   
ATOM     35  H23 UNL     1      -3.969  -0.185   4.667  1.00  0.00     0.177 HD  
ATOM     36  H30 UNL     1      -2.297  -0.456   6.829  1.00  0.00     0.148 HD  
ENDBRANCH  25  26
ENDBRANCH   3  25
TORSDOF 8
