REMARK SMILES CC(C)C[C@H]([NH2+]Cc1ccc2c(c1)OCO2)c1cn(Cc2cc(F)ccc2N([O-])[O-])nn1
REMARK SMILES IDX 17 1 18 2 19 3 31 4 32 5 5 7 4 8 2 9 1 10 3 11 6 12 7 15
REMARK SMILES IDX 8 16 9 17 13 18 10 19 12 20 11 21 14 22 16 23 15 24 20 25
REMARK SMILES IDX 21 26 22 27 27 28 23 29 26 30 25 31 24 32 28 33 29 34 30 35
REMARK H PARENT 18 6 6 13 6 14
ROOT
ATOM     1   C14 UNL     1       0.463  -1.072   0.697  1.00  0.00     0.127 A   
ATOM     2   C15 UNL     1       0.970  -1.234   1.969  1.00  0.00     0.046 A   
ATOM     3   N2  UNL     1      -0.080  -1.747   2.678  1.00  0.00    -0.208 N   
ATOM     4   N4  UNL     1      -1.124  -1.996   1.873  1.00  0.00    -0.076 NA  
ATOM     5   N5  UNL     1      -0.806  -1.582   0.657  1.00  0.00    -0.132 NA  
ATOM     6   H20 UNL     1       1.903  -0.950   2.437  1.00  0.00     0.083 HD  
ENDROOT
BRANCH   1   7
ATOM     7   C5  UNL     1       0.996  -0.344  -0.492  1.00  0.00     0.114 C   
BRANCH   7   8
ATOM     8   C4  UNL     1       2.533  -0.272  -0.567  1.00  0.00     0.064 C   
BRANCH   8   9
ATOM     9   C2  UNL     1       3.251  -1.635  -0.682  1.00  0.00    -0.012 C   
ATOM     10  C1  UNL     1       2.829  -2.414  -1.928  1.00  0.00     0.007 C   
ATOM     11  C3  UNL     1       4.767  -1.419  -0.694  1.00  0.00     0.007 C   
ENDBRANCH   8   9
ENDBRANCH   7   8
BRANCH   7  12
ATOM     12  N1  UNL     1       0.480   1.081  -0.496  1.00  0.00     0.249 N   
ATOM     13  H11 UNL     1       0.984   1.638  -1.192  1.00  0.00     0.199 HD  
ATOM     14  H12 UNL     1       0.662   1.511   0.421  1.00  0.00     0.199 HD  
BRANCH  12  15
ATOM     15  C6  UNL     1      -0.985   1.224  -0.764  1.00  0.00     0.164 C   
BRANCH  15  16
ATOM     16  C7  UNL     1      -1.318   2.642  -1.140  1.00  0.00    -0.002 A   
ATOM     17  C8  UNL     1      -1.518   2.993  -2.496  1.00  0.00     0.012 A   
ATOM     18  C12 UNL     1      -1.394   3.638  -0.153  1.00  0.00     0.045 A   
ATOM     19  C9  UNL     1      -1.794   4.314  -2.865  1.00  0.00     0.037 A   
ATOM     20  C11 UNL     1      -1.666   4.930  -0.550  1.00  0.00     0.109 A   
ATOM     21  C10 UNL     1      -1.861   5.260  -1.867  1.00  0.00     0.108 A   
ATOM     22  O1  UNL     1      -1.771   6.005   0.275  1.00  0.00    -0.316 OA  
ATOM     23  O2  UNL     1      -2.114   6.583  -2.038  1.00  0.00    -0.316 OA  
ATOM     24  C13 UNL     1      -2.080   7.052  -0.672  1.00  0.00     0.337 C   
ENDBRANCH  15  16
ENDBRANCH  12  15
ENDBRANCH   7  12
ENDBRANCH   1   7
BRANCH   3  25
ATOM     25  C16 UNL     1      -0.222  -1.818   4.125  1.00  0.00     0.171 C   
BRANCH  25  26
ATOM     26  C17 UNL     1      -1.281  -0.861   4.632  1.00  0.00     0.003 A   
ATOM     27  C18 UNL     1      -2.396  -1.387   5.310  1.00  0.00     0.047 A   
ATOM     28  C22 UNL     1      -1.240   0.538   4.456  1.00  0.00     0.123 A   
ATOM     29  C19 UNL     1      -3.411  -0.549   5.766  1.00  0.00     0.123 A   
ATOM     30  C21 UNL     1      -2.261   1.382   4.914  1.00  0.00     0.034 A   
ATOM     31  C20 UNL     1      -3.353   0.826   5.577  1.00  0.00     0.041 A   
ATOM     32  F1  UNL     1      -4.466  -1.082   6.391  1.00  0.00    -0.207 F   
BRANCH  28  33
ATOM     33  N3  UNL     1      -0.124   1.165   3.770  1.00  0.00     0.092 N   
ATOM     34  O3  UNL     1      -0.346   1.691   2.667  1.00  0.00    -0.138 OA  
ATOM     35  O4  UNL     1       0.988   1.072   4.298  1.00  0.00    -0.138 OA  
ENDBRANCH  28  33
ENDBRANCH  25  26
ENDBRANCH   3  25
TORSDOF 9
