REMARK SMILES CC(C)[C@H]([NH2+]Cc1ccc2c(c1)OCO2)c1cn([C@@H](C)c2cccnc2)nn1
REMARK SMILES IDX 4 1 2 2 1 3 3 4 5 5 6 8 7 9 8 10 12 11 9 12 11 13 10 14
REMARK SMILES IDX 13 15 15 16 14 17 16 18 17 19 28 20 18 21 27 22 19 24 20 25
REMARK SMILES IDX 21 26 22 27 26 28 23 29 25 30 24 31
REMARK H PARENT 5 6 5 7 17 23
ROOT
ATOM     1   C4  UNL     1      -1.957  -0.575  -0.983  1.00  0.00     0.117 C   
ENDROOT
BRANCH   1   2
ATOM     2   C2  UNL     1      -3.436  -0.228  -1.304  1.00  0.00     0.037 C   
ATOM     3   C1  UNL     1      -3.554   0.609  -2.584  1.00  0.00     0.014 C   
ATOM     4   C3  UNL     1      -4.363  -1.445  -1.400  1.00  0.00     0.014 C   
ENDBRANCH   1   2
BRANCH   1   5
ATOM     5   N1  UNL     1      -1.411  -1.549  -2.001  1.00  0.00     0.249 N   
ATOM     6   H9  UNL     1      -1.888  -2.446  -1.837  1.00  0.00     0.199 HD  
ATOM     7   H10 UNL     1      -1.644  -1.246  -2.949  1.00  0.00     0.199 HD  
BRANCH   5   8
ATOM     8   C5  UNL     1       0.059  -1.833  -1.933  1.00  0.00     0.164 C   
BRANCH   8   9
ATOM     9   C6  UNL     1       0.917  -0.613  -2.110  1.00  0.00    -0.002 A   
ATOM     10  C7  UNL     1       1.690  -0.126  -1.027  1.00  0.00     0.012 A   
ATOM     11  C11 UNL     1       0.950   0.063  -3.342  1.00  0.00     0.045 A   
ATOM     12  C8  UNL     1       2.475   1.024  -1.163  1.00  0.00     0.037 A   
ATOM     13  C10 UNL     1       1.735   1.193  -3.442  1.00  0.00     0.109 A   
ATOM     14  C9  UNL     1       2.475   1.661  -2.384  1.00  0.00     0.108 A   
ATOM     15  O1  UNL     1       1.877   1.960  -4.555  1.00  0.00    -0.316 OA  
ATOM     16  O2  UNL     1       3.174   2.783  -2.697  1.00  0.00    -0.316 OA  
ATOM     17  C12 UNL     1       2.827   2.946  -4.089  1.00  0.00     0.337 C   
ENDBRANCH   8   9
ENDBRANCH   5   8
ENDBRANCH   1   5
BRANCH   1  18
ATOM     18  C13 UNL     1      -1.784  -1.100   0.405  1.00  0.00     0.127 A   
ATOM     19  C14 UNL     1      -1.451  -0.456   1.576  1.00  0.00     0.046 A   
ATOM     20  N5  UNL     1      -1.849  -2.449   0.637  1.00  0.00    -0.132 NA  
ATOM     21  N2  UNL     1      -1.268  -1.475   2.477  1.00  0.00    -0.205 N   
ATOM     22  N4  UNL     1      -1.521  -2.667   1.899  1.00  0.00    -0.075 NA  
ATOM     23  H18 UNL     1      -1.262   0.579   1.828  1.00  0.00     0.083 HD  
BRANCH  21  24
ATOM     24  C15 UNL     1      -0.672  -1.375   3.811  1.00  0.00     0.128 C   
ATOM     25  C16 UNL     1      -0.929  -2.593   4.701  1.00  0.00     0.036 C   
BRANCH  24  26
ATOM     26  C17 UNL     1       0.807  -1.071   3.677  1.00  0.00    -0.007 A   
ATOM     27  C18 UNL     1       1.373   0.061   4.273  1.00  0.00     0.009 A   
ATOM     28  C21 UNL     1       1.656  -1.888   2.929  1.00  0.00     0.116 A   
ATOM     29  C19 UNL     1       2.725   0.337   4.088  1.00  0.00     0.020 A   
ATOM     30  N3  UNL     1       2.960  -1.622   2.704  1.00  0.00    -0.264 NA  
ATOM     31  C20 UNL     1       3.471  -0.523   3.299  1.00  0.00     0.111 A   
ENDBRANCH  24  26
ENDBRANCH  21  24
ENDBRANCH   1  18
TORSDOF 7
