REMARK SMILES COc1ccccc1Cn1cc([C@@H]([NH2+]Cc2ccc3c(c2)OCO3)C2CCCCC2)nn1
REMARK SMILES IDX 10 1 11 2 12 3 31 4 32 5 9 7 8 8 3 9 4 10 5 11 7 12 6 13
REMARK SMILES IDX 2 14 1 15 13 16 14 17 15 20 16 21 17 22 21 23 18 24 20 25
REMARK SMILES IDX 19 26 22 27 24 28 23 29 25 30 26 31 30 32 27 33 29 34 28 35
REMARK H PARENT 11 6 14 18 14 19
ROOT
ATOM     1   N1  UNL     1      -0.218  -0.201   3.542  1.00  0.00    -0.208 N   
ATOM     2   C9  UNL     1      -1.139  -0.492   2.571  1.00  0.00     0.046 A   
ATOM     3   C10 UNL     1      -0.701   0.217   1.474  1.00  0.00     0.127 A   
ATOM     4   N3  UNL     1       0.420   0.932   1.818  1.00  0.00    -0.132 NA  
ATOM     5   N4  UNL     1       0.686   0.695   3.091  1.00  0.00    -0.076 NA  
ATOM     6   H10 UNL     1      -1.959  -1.177   2.745  1.00  0.00     0.083 HD  
ENDROOT
BRANCH   1   7
ATOM     7   C8  UNL     1      -0.153  -0.702   4.904  1.00  0.00     0.172 C   
BRANCH   7   8
ATOM     8   C7  UNL     1       0.711  -1.939   4.982  1.00  0.00     0.002 A   
ATOM     9   C2  UNL     1       0.171  -3.224   4.781  1.00  0.00     0.079 A   
ATOM     10  C3  UNL     1       1.013  -4.341   4.825  1.00  0.00     0.034 A   
ATOM     11  C4  UNL     1       2.378  -4.190   5.080  1.00  0.00     0.003 A   
ATOM     12  C6  UNL     1       2.088  -1.801   5.237  1.00  0.00     0.008 A   
ATOM     13  C5  UNL     1       2.914  -2.923   5.291  1.00  0.00     0.001 A   
BRANCH   9  14
ATOM     14  O1  UNL     1      -1.177  -3.277   4.518  1.00  0.00    -0.349 OA  
ATOM     15  C1  UNL     1      -1.805  -4.549   4.674  1.00  0.00     0.203 C   
ENDBRANCH   9  14
ENDBRANCH   7   8
ENDBRANCH   1   7
BRANCH   3  16
ATOM     16  C11 UNL     1      -1.226   0.302   0.073  1.00  0.00     0.117 C   
BRANCH  16  17
ATOM     17  N2  UNL     1      -0.528   1.411  -0.671  1.00  0.00     0.249 N   
ATOM     18  H12 UNL     1       0.457   1.381  -0.361  1.00  0.00     0.199 HD  
ATOM     19  H13 UNL     1      -0.506   1.263  -1.685  1.00  0.00     0.199 HD  
BRANCH  17  20
ATOM     20  C12 UNL     1      -1.021   2.787  -0.376  1.00  0.00     0.164 C   
BRANCH  20  21
ATOM     21  C13 UNL     1      -0.102   3.804  -0.992  1.00  0.00    -0.002 A   
ATOM     22  C14 UNL     1       1.041   4.243  -0.277  1.00  0.00     0.012 A   
ATOM     23  C18 UNL     1      -0.327   4.274  -2.296  1.00  0.00     0.045 A   
ATOM     24  C15 UNL     1       1.950   5.135  -0.853  1.00  0.00     0.037 A   
ATOM     25  C17 UNL     1       0.595   5.145  -2.839  1.00  0.00     0.109 A   
ATOM     26  C16 UNL     1       1.704   5.558  -2.142  1.00  0.00     0.108 A   
ATOM     27  O2  UNL     1       0.542   5.672  -4.093  1.00  0.00    -0.316 OA  
ATOM     28  O3  UNL     1       2.493   6.391  -2.870  1.00  0.00    -0.316 OA  
ATOM     29  C19 UNL     1       1.756   6.457  -4.109  1.00  0.00     0.337 C   
ENDBRANCH  20  21
ENDBRANCH  17  20
ENDBRANCH  16  17
BRANCH  16  30
ATOM     30  C20 UNL     1      -1.072  -1.042  -0.691  1.00  0.00     0.043 C   
ATOM     31  C21 UNL     1      -1.901  -1.057  -1.991  1.00  0.00     0.010 C   
ATOM     32  C25 UNL     1       0.392  -1.430  -0.983  1.00  0.00     0.010 C   
ATOM     33  C22 UNL     1      -1.800  -2.404  -2.705  1.00  0.00     0.001 C   
ATOM     34  C24 UNL     1       0.487  -2.772  -1.710  1.00  0.00     0.001 C   
ATOM     35  C23 UNL     1      -0.349  -2.784  -2.984  1.00  0.00     0.000 C   
ENDBRANCH  16  30
ENDBRANCH   3  16
TORSDOF 8
