REMARK SMILES O=C(Cn1cc([C@@H]([NH2+]Cc2ccc3c(c2)OCO3)C2CCCCC2)nn1)c1ccc(F)cc1
REMARK SMILES IDX 4 1 5 2 6 3 25 4 26 5 3 7 2 8 1 9 27 10 28 11 33 12 29 13
REMARK SMILES IDX 32 14 30 15 31 16 7 17 8 18 9 21 10 22 11 23 15 24 12 25
REMARK SMILES IDX 14 26 13 27 16 28 18 29 17 30 19 31 20 32 24 33 21 34 23 35
REMARK SMILES IDX 22 36
REMARK H PARENT 5 6 8 19 8 20
ROOT
ATOM     1   N1  UNL     1       2.243  -0.512  -1.334  1.00  0.00    -0.204 N   
ATOM     2   C3  UNL     1       2.164  -0.766   0.006  1.00  0.00     0.046 A   
ATOM     3   C4  UNL     1       0.996  -0.150   0.395  1.00  0.00     0.127 A   
ATOM     4   N3  UNL     1       0.441   0.480  -0.692  1.00  0.00    -0.132 NA  
ATOM     5   N4  UNL     1       1.220   0.263  -1.738  1.00  0.00    -0.076 NA  
ATOM     6   H3  UNL     1       2.898  -1.372   0.523  1.00  0.00     0.083 HD  
ENDROOT
BRANCH   1   7
ATOM     7   C2  UNL     1       3.242  -0.965  -2.276  1.00  0.00     0.214 C   
BRANCH   7   8
ATOM     8   C1  UNL     1       3.049  -2.428  -2.579  1.00  0.00     0.182 C   
ATOM     9   O1  UNL     1       3.363  -3.286  -1.754  1.00  0.00    -0.292 OA  
BRANCH   8  10
ATOM     10  C20 UNL     1       2.458  -2.848  -3.881  1.00  0.00     0.019 A   
ATOM     11  C21 UNL     1       2.695  -4.161  -4.318  1.00  0.00     0.015 A   
ATOM     12  C25 UNL     1       1.662  -1.994  -4.658  1.00  0.00     0.015 A   
ATOM     13  C22 UNL     1       2.159  -4.610  -5.527  1.00  0.00     0.040 A   
ATOM     14  C24 UNL     1       1.127  -2.450  -5.867  1.00  0.00     0.040 A   
ATOM     15  C23 UNL     1       1.380  -3.750  -6.291  1.00  0.00     0.123 A   
ATOM     16  F1  UNL     1       0.858  -4.181  -7.446  1.00  0.00    -0.207 F   
ENDBRANCH   8  10
ENDBRANCH   7   8
ENDBRANCH   1   7
BRANCH   3  17
ATOM     17  C5  UNL     1       0.317  -0.078   1.727  1.00  0.00     0.117 C   
BRANCH  17  18
ATOM     18  N2  UNL     1      -0.604   1.110   1.783  1.00  0.00     0.249 N   
ATOM     19  H5  UNL     1      -1.319   1.013   2.509  1.00  0.00     0.199 HD  
ATOM     20  H6  UNL     1      -1.110   1.136   0.885  1.00  0.00     0.199 HD  
BRANCH  18  21
ATOM     21  C6  UNL     1       0.067   2.430   1.944  1.00  0.00     0.164 C   
BRANCH  21  22
ATOM     22  C7  UNL     1      -0.949   3.536   1.924  1.00  0.00    -0.002 A   
ATOM     23  C8  UNL     1      -1.397   4.065   0.690  1.00  0.00     0.012 A   
ATOM     24  C12 UNL     1      -1.504   4.010   3.124  1.00  0.00     0.045 A   
ATOM     25  C9  UNL     1      -2.382   5.059   0.650  1.00  0.00     0.037 A   
ATOM     26  C11 UNL     1      -2.472   4.990   3.049  1.00  0.00     0.109 A   
ATOM     27  C10 UNL     1      -2.900   5.499   1.848  1.00  0.00     0.108 A   
ATOM     28  O2  UNL     1      -3.107   5.555   4.108  1.00  0.00    -0.316 OA  
ATOM     29  O3  UNL     1      -3.858   6.449   2.000  1.00  0.00    -0.316 OA  
ATOM     30  C13 UNL     1      -3.973   6.499   3.438  1.00  0.00     0.337 C   
ENDBRANCH  21  22
ENDBRANCH  18  21
ENDBRANCH  17  18
BRANCH  17  31
ATOM     31  C14 UNL     1      -0.462  -1.382   2.054  1.00  0.00     0.043 C   
ATOM     32  C15 UNL     1      -0.866  -1.448   3.541  1.00  0.00     0.010 C   
ATOM     33  C19 UNL     1      -1.694  -1.616   1.157  1.00  0.00     0.010 C   
ATOM     34  C16 UNL     1      -1.571  -2.762   3.875  1.00  0.00     0.001 C   
ATOM     35  C18 UNL     1      -2.397  -2.929   1.498  1.00  0.00     0.001 C   
ATOM     36  C17 UNL     1      -2.778  -2.998   2.973  1.00  0.00     0.000 C   
ENDBRANCH  17  31
ENDBRANCH   3  17
TORSDOF 8
