REMARK SMILES COc1cc(CCn2cc([C@@H]([NH2+]Cc3ccc4c(c3)OCO4)C3CCCCC3)nn2)ccn1
REMARK SMILES IDX 8 1 9 2 10 3 29 4 30 5 7 7 6 8 5 9 3 10 4 11 33 12 32 13
REMARK SMILES IDX 31 14 2 15 1 16 11 17 12 18 13 21 14 22 15 23 19 24 16 25
REMARK SMILES IDX 18 26 17 27 20 28 22 29 21 30 23 31 24 32 28 33 25 34 27 35
REMARK SMILES IDX 26 36
REMARK H PARENT 9 6 12 19 12 20
ROOT
ATOM     1   N1  UNL     1       2.425  -1.435  -3.125  1.00  0.00    -0.212 N   
ATOM     2   C7  UNL     1       2.202  -1.492  -1.777  1.00  0.00     0.045 A   
ATOM     3   C8  UNL     1       0.831  -1.438  -1.667  1.00  0.00     0.127 A   
ATOM     4   N3  UNL     1       0.280  -1.380  -2.921  1.00  0.00    -0.132 NA  
ATOM     5   N4  UNL     1       1.265  -1.391  -3.805  1.00  0.00    -0.076 NA  
ATOM     6   H9  UNL     1       3.006  -1.510  -1.055  1.00  0.00     0.083 HD  
ENDROOT
BRANCH   1   7
ATOM     7   C6  UNL     1       3.692  -1.287  -3.811  1.00  0.00     0.139 C   
BRANCH   7   8
ATOM     8   C5  UNL     1       3.885   0.105  -4.423  1.00  0.00     0.057 C   
BRANCH   8   9
ATOM     9   C4  UNL     1       3.739   1.218  -3.413  1.00  0.00    -0.041 A   
ATOM     10  C2  UNL     1       2.408   2.891  -2.330  1.00  0.00     0.166 A   
ATOM     11  C3  UNL     1       2.537   1.929  -3.317  1.00  0.00     0.058 A   
ATOM     12  N5  UNL     1       3.368   3.168  -1.427  1.00  0.00    -0.233 NA  
ATOM     13  C25 UNL     1       4.535   2.501  -1.557  1.00  0.00     0.114 A   
ATOM     14  C24 UNL     1       4.765   1.526  -2.517  1.00  0.00     0.024 A   
BRANCH  10  15
ATOM     15  O1  UNL     1       1.176   3.509  -2.227  1.00  0.00    -0.333 OA  
ATOM     16  C1  UNL     1       1.251   4.733  -1.496  1.00  0.00     0.205 C   
ENDBRANCH  10  15
ENDBRANCH   8   9
ENDBRANCH   7   8
ENDBRANCH   1   7
BRANCH   3  17
ATOM     17  C9  UNL     1      -0.053  -1.342  -0.465  1.00  0.00     0.117 C   
BRANCH  17  18
ATOM     18  N2  UNL     1      -1.203  -0.407  -0.753  1.00  0.00     0.249 N   
ATOM     19  H11 UNL     1      -1.983  -0.567  -0.111  1.00  0.00     0.199 HD  
ATOM     20  H12 UNL     1      -1.534  -0.648  -1.699  1.00  0.00     0.199 HD  
BRANCH  18  21
ATOM     21  C10 UNL     1      -0.866   1.048  -0.759  1.00  0.00     0.164 C   
BRANCH  21  22
ATOM     22  C11 UNL     1      -0.661   1.592   0.628  1.00  0.00    -0.002 A   
ATOM     23  C12 UNL     1      -1.770   1.806   1.483  1.00  0.00     0.012 A   
ATOM     24  C16 UNL     1       0.635   1.862   1.099  1.00  0.00     0.045 A   
ATOM     25  C13 UNL     1      -1.591   2.276   2.788  1.00  0.00     0.037 A   
ATOM     26  C15 UNL     1       0.777   2.322   2.391  1.00  0.00     0.109 A   
ATOM     27  C14 UNL     1      -0.305   2.523   3.212  1.00  0.00     0.108 A   
ATOM     28  O2  UNL     1       1.954   2.621   3.001  1.00  0.00    -0.316 OA  
ATOM     29  O3  UNL     1       0.054   2.979   4.440  1.00  0.00    -0.316 OA  
ATOM     30  C17 UNL     1       1.487   3.075   4.291  1.00  0.00     0.337 C   
ENDBRANCH  21  22
ENDBRANCH  18  21
ENDBRANCH  17  18
BRANCH  17  31
ATOM     31  C18 UNL     1      -0.576  -2.728  -0.000  1.00  0.00     0.043 C   
ATOM     32  C19 UNL     1      -1.592  -3.377  -0.961  1.00  0.00     0.010 C   
ATOM     33  C23 UNL     1      -1.162  -2.657   1.425  1.00  0.00     0.010 C   
ATOM     34  C20 UNL     1      -2.044  -4.749  -0.459  1.00  0.00     0.001 C   
ATOM     35  C22 UNL     1      -1.613  -4.030   1.919  1.00  0.00     0.001 C   
ATOM     36  C21 UNL     1      -2.605  -4.675   0.957  1.00  0.00     0.000 C   
ENDBRANCH  17  31
ENDBRANCH   3  17
TORSDOF 9
