REMARK SMILES CC(C)C[C@H]([NH2+]Cc1ccc2c(c1)OCO2)c1cn(CCc2cc(F)ccc2F)nn1
REMARK SMILES IDX 17 1 18 2 19 3 30 4 31 5 5 7 4 8 2 9 1 10 3 11 6 12 7 15
REMARK SMILES IDX 8 16 9 17 13 18 10 19 12 20 11 21 14 22 16 23 15 24 20 25
REMARK SMILES IDX 21 26 22 27 23 28 28 29 24 30 27 31 26 32 29 33 25 34
REMARK H PARENT 18 6 6 13 6 14
ROOT
ATOM     1   C14 UNL     1      -2.054  -1.123   1.072  1.00  0.00     0.127 A   
ATOM     2   C15 UNL     1      -1.013  -1.012   1.967  1.00  0.00     0.045 A   
ATOM     3   N2  UNL     1      -0.837  -2.286   2.425  1.00  0.00    -0.212 N   
ATOM     4   N3  UNL     1      -1.717  -3.130   1.855  1.00  0.00    -0.076 NA  
ATOM     5   N4  UNL     1      -2.473  -2.428   1.029  1.00  0.00    -0.132 NA  
ATOM     6   H20 UNL     1      -0.396  -0.186   2.294  1.00  0.00     0.083 HD  
ENDROOT
BRANCH   1   7
ATOM     7   C5  UNL     1      -2.698  -0.121   0.174  1.00  0.00     0.114 C   
BRANCH   7   8
ATOM     8   C4  UNL     1      -4.004   0.447   0.762  1.00  0.00     0.064 C   
BRANCH   8   9
ATOM     9   C2  UNL     1      -3.842   1.256   2.067  1.00  0.00    -0.012 C   
ATOM     10  C1  UNL     1      -2.939   2.478   1.888  1.00  0.00     0.007 C   
ATOM     11  C3  UNL     1      -5.218   1.702   2.571  1.00  0.00     0.007 C   
ENDBRANCH   8   9
ENDBRANCH   7   8
BRANCH   7  12
ATOM     12  N1  UNL     1      -3.063  -0.773  -1.147  1.00  0.00     0.249 N   
ATOM     13  H11 UNL     1      -3.685  -0.161  -1.684  1.00  0.00     0.199 HD  
ATOM     14  H12 UNL     1      -3.595  -1.621  -0.907  1.00  0.00     0.199 HD  
BRANCH  12  15
ATOM     15  C6  UNL     1      -1.925  -1.200  -2.014  1.00  0.00     0.164 C   
BRANCH  15  16
ATOM     16  C7  UNL     1      -1.127  -0.042  -2.543  1.00  0.00    -0.002 A   
ATOM     17  C8  UNL     1      -1.637   0.774  -3.581  1.00  0.00     0.012 A   
ATOM     18  C12 UNL     1       0.126   0.259  -1.980  1.00  0.00     0.045 A   
ATOM     19  C9  UNL     1      -0.912   1.875  -4.050  1.00  0.00     0.037 A   
ATOM     20  C11 UNL     1       0.814   1.351  -2.464  1.00  0.00     0.109 A   
ATOM     21  C10 UNL     1       0.310   2.138  -3.469  1.00  0.00     0.108 A   
ATOM     22  O1  UNL     1       2.028   1.778  -2.027  1.00  0.00    -0.316 OA  
ATOM     23  O2  UNL     1       1.143   3.159  -3.795  1.00  0.00    -0.316 OA  
ATOM     24  C13 UNL     1       2.246   2.914  -2.897  1.00  0.00     0.337 C   
ENDBRANCH  15  16
ENDBRANCH  12  15
ENDBRANCH   7  12
ENDBRANCH   1   7
BRANCH   3  25
ATOM     25  C16 UNL     1       0.122  -2.774   3.393  1.00  0.00     0.139 C   
BRANCH  25  26
ATOM     26  C17 UNL     1       1.372  -3.373   2.747  1.00  0.00     0.060 C   
BRANCH  26  27
ATOM     27  C18 UNL     1       2.341  -2.331   2.246  1.00  0.00    -0.008 A   
ATOM     28  C19 UNL     1       3.287  -1.765   3.112  1.00  0.00     0.046 A   
ATOM     29  C23 UNL     1       2.315  -1.897   0.915  1.00  0.00     0.126 A   
ATOM     30  C20 UNL     1       4.176  -0.801   2.640  1.00  0.00     0.123 A   
ATOM     31  C22 UNL     1       3.208  -0.936   0.444  1.00  0.00     0.042 A   
ATOM     32  C21 UNL     1       4.146  -0.383   1.314  1.00  0.00     0.042 A   
ATOM     33  F2  UNL     1       1.398  -2.391   0.070  1.00  0.00    -0.207 F   
ATOM     34  F1  UNL     1       5.071  -0.266   3.479  1.00  0.00    -0.207 F   
ENDBRANCH  26  27
ENDBRANCH  25  26
ENDBRANCH   3  25
TORSDOF 9
