REMARK SMILES c1cc2c(cc1C[NH2+][C@H](c1cn(CCc3cc4c([nH]3)CCCC4)nn1)C1CCCC1)OCO2
REMARK SMILES IDX 10 1 11 2 12 3 24 4 25 5 9 7 8 8 7 11 6 12 1 13 2 14 3 15
REMARK SMILES IDX 5 16 4 17 33 18 31 19 32 20 26 21 27 22 30 23 28 24 29 25
REMARK SMILES IDX 13 26 14 27 15 28 16 29 19 30 17 31 18 32 23 33 20 34 22 35
REMARK SMILES IDX 21 36
REMARK H PARENT 11 6 8 9 8 10 19 37
ROOT
ATOM     1   C9  UNL     1       0.287   1.661   1.317  1.00  0.00     0.127 A   
ATOM     2   C10 UNL     1       1.219   1.597   2.327  1.00  0.00     0.045 A   
ATOM     3   N2  UNL     1       0.592   0.869   3.300  1.00  0.00    -0.212 N   
ATOM     4   N4  UNL     1      -0.672   0.571   2.945  1.00  0.00    -0.076 NA  
ATOM     5   N5  UNL     1      -0.869   1.045   1.726  1.00  0.00    -0.132 NA  
ATOM     6   H9  UNL     1       2.251   1.908   2.409  1.00  0.00     0.083 HD  
ENDROOT
BRANCH   1   7
ATOM     7   C8  UNL     1       0.405   2.140  -0.092  1.00  0.00     0.117 C   
BRANCH   7   8
ATOM     8   N1  UNL     1      -0.291   1.162  -0.998  1.00  0.00     0.249 N   
ATOM     9   H6  UNL     1      -1.192   0.945  -0.545  1.00  0.00     0.199 HD  
ATOM     10  H7  UNL     1      -0.519   1.561  -1.912  1.00  0.00     0.199 HD  
BRANCH   8  11
ATOM     11  C7  UNL     1       0.423  -0.134  -1.189  1.00  0.00     0.164 C   
BRANCH  11  12
ATOM     12  C6  UNL     1      -0.476  -1.131  -1.862  1.00  0.00    -0.002 A   
ATOM     13  C1  UNL     1      -1.438  -1.838  -1.099  1.00  0.00     0.012 A   
ATOM     14  C2  UNL     1      -2.314  -2.741  -1.708  1.00  0.00     0.037 A   
ATOM     15  C3  UNL     1      -2.212  -2.916  -3.071  1.00  0.00     0.108 A   
ATOM     16  C5  UNL     1      -0.406  -1.334  -3.250  1.00  0.00     0.045 A   
ATOM     17  C4  UNL     1      -1.285  -2.232  -3.819  1.00  0.00     0.109 A   
ATOM     18  O2  UNL     1      -2.976  -3.747  -3.826  1.00  0.00    -0.316 OA  
ATOM     19  O1  UNL     1      -1.350  -2.545  -5.140  1.00  0.00    -0.316 OA  
ATOM     20  C26 UNL     1      -2.428  -3.509  -5.141  1.00  0.00     0.337 C   
ENDBRANCH  11  12
ENDBRANCH   8  11
ENDBRANCH   7   8
BRANCH   7  21
ATOM     21  C21 UNL     1      -0.158   3.561  -0.271  1.00  0.00     0.043 C   
ATOM     22  C22 UNL     1       0.163   4.204  -1.627  1.00  0.00     0.010 C   
ATOM     23  C25 UNL     1      -1.678   3.713  -0.173  1.00  0.00     0.010 C   
ATOM     24  C23 UNL     1      -0.895   5.292  -1.827  1.00  0.00     0.001 C   
ATOM     25  C24 UNL     1      -1.908   5.122  -0.699  1.00  0.00     0.001 C   
ENDBRANCH   7  21
ENDBRANCH   1   7
BRANCH   3  26
ATOM     26  C11 UNL     1       1.183   0.302   4.495  1.00  0.00     0.140 C   
BRANCH  26  27
ATOM     27  C12 UNL     1       1.339  -1.220   4.416  1.00  0.00     0.072 C   
BRANCH  27  28
ATOM     28  C13 UNL     1       2.074  -1.675   3.189  1.00  0.00     0.009 A   
ATOM     29  C14 UNL     1       3.321  -1.333   2.698  1.00  0.00     0.024 A   
ATOM     30  N3  UNL     1       1.519  -2.592   2.322  1.00  0.00    -0.321 N   
ATOM     31  C15 UNL     1       3.505  -2.031   1.482  1.00  0.00    -0.029 A   
ATOM     32  C16 UNL     1       2.376  -2.795   1.278  1.00  0.00     0.010 A   
ATOM     33  C20 UNL     1       4.679  -2.068   0.561  1.00  0.00     0.037 C   
ATOM     34  C17 UNL     1       2.136  -3.723   0.138  1.00  0.00     0.051 C   
ATOM     35  C19 UNL     1       4.298  -2.707  -0.788  1.00  0.00     0.005 C   
ATOM     36  C18 UNL     1       3.458  -3.987  -0.609  1.00  0.00     0.006 C   
ATOM     37  H15 UNL     1       0.627  -3.056   2.451  1.00  0.00     0.152 HD  
ENDBRANCH  27  28
ENDBRANCH  26  27
ENDBRANCH   3  26
TORSDOF 8
