REMARK SMILES Cc1nn(C)c(Cl)c1CCn1cc([C@H](CC(C)C)[NH2+]Cc2ccc3c(c2)OCO3)nn1
REMARK SMILES IDX 11 1 12 2 13 3 30 4 31 5 10 7 9 8 8 9 2 10 3 11 4 12 6 13
REMARK SMILES IDX 1 14 5 15 7 16 14 17 15 18 16 19 17 20 18 21 19 22 20 25
REMARK SMILES IDX 21 26 22 27 26 28 23 29 25 30 24 31 27 32 29 33 28 34
REMARK H PARENT 12 6 19 23 19 24
ROOT
ATOM     1   N3  UNL     1       1.698   1.526   3.853  1.00  0.00    -0.212 N   
ATOM     2   C8  UNL     1       0.607   0.710   3.688  1.00  0.00     0.045 A   
ATOM     3   C9  UNL     1       1.038  -0.216   2.764  1.00  0.00     0.127 A   
ATOM     4   N5  UNL     1       2.380  -0.043   2.542  1.00  0.00    -0.132 NA  
ATOM     5   N6  UNL     1       2.779   1.014   3.234  1.00  0.00    -0.076 NA  
ATOM     6   H11 UNL     1      -0.364   0.958   4.092  1.00  0.00     0.083 HD  
ENDROOT
BRANCH   1   7
ATOM     7   C7  UNL     1       1.665   2.927   4.234  1.00  0.00     0.139 C   
BRANCH   7   8
ATOM     8   C6  UNL     1       1.637   3.871   3.013  1.00  0.00     0.062 C   
BRANCH   8   9
ATOM     9   C5  UNL     1       0.693   3.412   1.940  1.00  0.00     0.011 A   
ATOM     10  C2  UNL     1       1.004   2.704   0.736  1.00  0.00     0.062 A   
ATOM     11  N1  UNL     1      -0.101   2.170   0.180  1.00  0.00    -0.185 NA  
ATOM     12  N2  UNL     1      -1.111   2.836   0.804  1.00  0.00    -0.217 N   
ATOM     13  C4  UNL     1      -0.679   3.483   1.922  1.00  0.00     0.121 A   
ATOM     14  C1  UNL     1       2.338   2.429   0.134  1.00  0.00     0.069 C   
ATOM     15  C3  UNL     1      -2.461   2.733   0.300  1.00  0.00     0.161 C   
ATOM     16  CL1 UNL     1      -1.779   4.158   3.027  1.00  0.00    -0.065 Cl  
ENDBRANCH   8   9
ENDBRANCH   7   8
ENDBRANCH   1   7
BRANCH   3  17
ATOM     17  C10 UNL     1       0.259  -1.168   1.918  1.00  0.00     0.114 C   
BRANCH  17  18
ATOM     18  C11 UNL     1       0.727  -2.626   2.077  1.00  0.00     0.064 C   
BRANCH  18  19
ATOM     19  C12 UNL     1       0.621  -3.187   3.513  1.00  0.00    -0.012 C   
ATOM     20  C13 UNL     1      -0.809  -3.151   4.051  1.00  0.00     0.007 C   
ATOM     21  C14 UNL     1       1.147  -4.624   3.546  1.00  0.00     0.007 C   
ENDBRANCH  18  19
ENDBRANCH  17  18
BRANCH  17  22
ATOM     22  N4  UNL     1       0.413  -0.730   0.483  1.00  0.00     0.249 N   
ATOM     23  H22 UNL     1       1.417  -0.692   0.272  1.00  0.00     0.199 HD  
ATOM     24  H23 UNL     1       0.122   0.270   0.407  1.00  0.00     0.199 HD  
BRANCH  22  25
ATOM     25  C15 UNL     1      -0.302  -1.498  -0.561  1.00  0.00     0.164 C   
BRANCH  25  26
ATOM     26  C16 UNL     1      -0.426  -0.724  -1.843  1.00  0.00    -0.002 A   
ATOM     27  C17 UNL     1       0.722  -0.403  -2.611  1.00  0.00     0.012 A   
ATOM     28  C21 UNL     1      -1.689  -0.287  -2.276  1.00  0.00     0.045 A   
ATOM     29  C18 UNL     1       0.615   0.355  -3.782  1.00  0.00     0.037 A   
ATOM     30  C20 UNL     1      -1.760   0.457  -3.435  1.00  0.00     0.109 A   
ATOM     31  C19 UNL     1      -0.641   0.773  -4.165  1.00  0.00     0.108 A   
ATOM     32  O1  UNL     1      -2.898   0.963  -3.980  1.00  0.00    -0.316 OA  
ATOM     33  O2  UNL     1      -0.933   1.516  -5.264  1.00  0.00    -0.316 OA  
ATOM     34  C22 UNL     1      -2.368   1.621  -5.154  1.00  0.00     0.337 C   
ENDBRANCH  25  26
ENDBRANCH  22  25
ENDBRANCH  17  22
ENDBRANCH   3  17
TORSDOF 9
