REMARK SMILES COc1cccc([C@@H](CO)n2cc([C@@H]([NH2+]Cc3ccc4c(c3)OCO4)C(C)(C)C)nn2)c1
REMARK SMILES IDX 11 1 12 2 13 3 30 4 31 5 8 7 7 8 3 9 4 10 32 11 5 12 6 13
REMARK SMILES IDX 2 14 1 15 9 16 10 17 14 19 15 20 16 23 17 24 18 25 22 26
REMARK SMILES IDX 19 27 21 28 20 29 23 30 25 31 24 32 26 33 27 34 28 35 29 36
REMARK H PARENT 12 6 10 18 15 21 15 22
ROOT
ATOM     1   N1  UNL     1      -0.099   1.752   1.391  1.00  0.00    -0.202 N   
ATOM     2   C9  UNL     1       0.901   1.187   0.646  1.00  0.00     0.046 A   
ATOM     3   C10 UNL     1       0.299   0.873  -0.550  1.00  0.00     0.127 A   
ATOM     4   N3  UNL     1      -1.026   1.222  -0.490  1.00  0.00    -0.132 NA  
ATOM     5   N4  UNL     1      -1.259   1.754   0.698  1.00  0.00    -0.075 NA  
ATOM     6   H11 UNL     1       1.906   1.069   1.029  1.00  0.00     0.083 HD  
ENDROOT
BRANCH   1   7
ATOM     7   C7  UNL     1      -0.059   2.244   2.767  1.00  0.00     0.155 C   
BRANCH   7   8
ATOM     8   C6  UNL     1       0.274   1.104   3.723  1.00  0.00    -0.021 A   
ATOM     9   C2  UNL     1       1.858  -0.253   5.001  1.00  0.00     0.075 A   
ATOM     10  C3  UNL     1       0.812  -1.049   5.461  1.00  0.00     0.033 A   
ATOM     11  C24 UNL     1       1.584   0.812   4.134  1.00  0.00     0.039 A   
ATOM     12  C4  UNL     1      -0.497  -0.781   5.058  1.00  0.00     0.003 A   
ATOM     13  C5  UNL     1      -0.764   0.281   4.194  1.00  0.00     0.006 A   
BRANCH   9  14
ATOM     14  O1  UNL     1       3.182  -0.408   5.307  1.00  0.00    -0.349 OA  
ATOM     15  C1  UNL     1       3.503  -1.378   6.298  1.00  0.00     0.203 C   
ENDBRANCH   9  14
ENDBRANCH   7   8
BRANCH   7  16
ATOM     16  C8  UNL     1       0.774   3.536   2.900  1.00  0.00     0.185 C   
BRANCH  16  17
ATOM     17  O2  UNL     1       2.114   3.403   2.425  1.00  0.00    -0.394 OA  
ATOM     18  H10 UNL     1       2.579   4.230   2.653  1.00  0.00     0.210 HD  
ENDBRANCH  16  17
ENDBRANCH   7  16
ENDBRANCH   1   7
BRANCH   3  19
ATOM     19  C11 UNL     1       0.827   0.170  -1.762  1.00  0.00     0.120 C   
BRANCH  19  20
ATOM     20  N2  UNL     1      -0.247  -0.760  -2.276  1.00  0.00     0.250 N   
ATOM     21  H13 UNL     1      -0.094  -1.043  -3.247  1.00  0.00     0.199 HD  
ATOM     22  H14 UNL     1      -1.127  -0.222  -2.268  1.00  0.00     0.199 HD  
BRANCH  20  23
ATOM     23  C12 UNL     1      -0.473  -1.980  -1.450  1.00  0.00     0.164 C   
BRANCH  23  24
ATOM     24  C13 UNL     1      -1.634  -2.769  -1.985  1.00  0.00    -0.002 A   
ATOM     25  C14 UNL     1      -1.423  -3.835  -2.891  1.00  0.00     0.012 A   
ATOM     26  C18 UNL     1      -2.945  -2.415  -1.622  1.00  0.00     0.045 A   
ATOM     27  C15 UNL     1      -2.503  -4.550  -3.420  1.00  0.00     0.037 A   
ATOM     28  C17 UNL     1      -3.987  -3.140  -2.163  1.00  0.00     0.109 A   
ATOM     29  C16 UNL     1      -3.773  -4.177  -3.036  1.00  0.00     0.108 A   
ATOM     30  O3  UNL     1      -5.306  -2.930  -1.918  1.00  0.00    -0.316 OA  
ATOM     31  O4  UNL     1      -4.931  -4.755  -3.448  1.00  0.00    -0.316 OA  
ATOM     32  C19 UNL     1      -5.904  -3.970  -2.726  1.00  0.00     0.337 C   
ENDBRANCH  23  24
ENDBRANCH  20  23
ENDBRANCH  19  20
BRANCH  19  33
ATOM     33  C20 UNL     1       1.314   1.131  -2.902  1.00  0.00     0.010 C   
ATOM     34  C21 UNL     1       1.973   0.317  -4.041  1.00  0.00     0.017 C   
ATOM     35  C22 UNL     1       2.391   2.098  -2.359  1.00  0.00     0.017 C   
ATOM     36  C23 UNL     1       0.171   1.970  -3.507  1.00  0.00     0.017 C   
ENDBRANCH  19  33
ENDBRANCH   3  19
TORSDOF 10
