REMARK SMILES COc1cccc([C@H](CO)n2cc([C@@H]([NH2+]Cc3ccc4c(c3)OCO4)C(C)(C)C)nn2)c1
REMARK SMILES IDX 11 1 12 2 13 3 30 4 31 5 8 7 7 8 3 9 4 10 32 11 5 12 6 13
REMARK SMILES IDX 2 14 1 15 9 16 10 17 14 19 15 20 16 23 17 24 18 25 22 26
REMARK SMILES IDX 19 27 21 28 20 29 23 30 25 31 24 32 26 33 27 34 28 35 29 36
REMARK H PARENT 12 6 10 18 15 21 15 22
ROOT
ATOM     1   N1  UNL     1       0.655  -2.615  -0.063  1.00  0.00    -0.202 N   
ATOM     2   C9  UNL     1       0.371  -1.337  -0.461  1.00  0.00     0.046 A   
ATOM     3   C10 UNL     1      -0.173  -0.749   0.658  1.00  0.00     0.127 A   
ATOM     4   N3  UNL     1      -0.248  -1.676   1.663  1.00  0.00    -0.132 NA  
ATOM     5   N4  UNL     1       0.259  -2.812   1.214  1.00  0.00    -0.075 NA  
ATOM     6   H11 UNL     1       0.570  -0.984  -1.463  1.00  0.00     0.083 HD  
ENDROOT
BRANCH   1   7
ATOM     7   C7  UNL     1       1.242  -3.720  -0.827  1.00  0.00     0.155 C   
BRANCH   7   8
ATOM     8   C6  UNL     1       2.295  -3.220  -1.811  1.00  0.00    -0.021 A   
ATOM     9   C2  UNL     1       4.537  -2.282  -2.162  1.00  0.00     0.075 A   
ATOM     10  C3  UNL     1       4.311  -2.253  -3.535  1.00  0.00     0.033 A   
ATOM     11  C24 UNL     1       3.533  -2.763  -1.312  1.00  0.00     0.039 A   
ATOM     12  C4  UNL     1       3.091  -2.699  -4.050  1.00  0.00     0.003 A   
ATOM     13  C5  UNL     1       2.092  -3.175  -3.197  1.00  0.00     0.006 A   
BRANCH   9  14
ATOM     14  O1  UNL     1       5.672  -1.868  -1.522  1.00  0.00    -0.349 OA  
ATOM     15  C1  UNL     1       6.762  -1.464  -2.342  1.00  0.00     0.203 C   
ENDBRANCH   9  14
ENDBRANCH   7   8
BRANCH   7  16
ATOM     16  C8  UNL     1       0.131  -4.632  -1.390  1.00  0.00     0.185 C   
BRANCH  16  17
ATOM     17  O2  UNL     1      -0.808  -3.928  -2.210  1.00  0.00    -0.394 OA  
ATOM     18  H10 UNL     1      -1.403  -4.600  -2.594  1.00  0.00     0.210 HD  
ENDBRANCH  16  17
ENDBRANCH   7  16
ENDBRANCH   1   7
BRANCH   3  19
ATOM     19  C11 UNL     1      -0.753   0.615   0.854  1.00  0.00     0.120 C   
BRANCH  19  20
ATOM     20  N2  UNL     1      -2.096   0.481   1.547  1.00  0.00     0.250 N   
ATOM     21  H13 UNL     1      -2.439   1.391   1.860  1.00  0.00     0.199 HD  
ATOM     22  H14 UNL     1      -1.932  -0.092   2.386  1.00  0.00     0.199 HD  
BRANCH  20  23
ATOM     23  C12 UNL     1      -3.177  -0.197   0.765  1.00  0.00     0.164 C   
BRANCH  23  24
ATOM     24  C13 UNL     1      -3.567   0.557  -0.476  1.00  0.00    -0.002 A   
ATOM     25  C14 UNL     1      -3.195   0.066  -1.753  1.00  0.00     0.012 A   
ATOM     26  C18 UNL     1      -4.260   1.776  -0.380  1.00  0.00     0.045 A   
ATOM     27  C15 UNL     1      -3.505   0.778  -2.917  1.00  0.00     0.037 A   
ATOM     28  C17 UNL     1      -4.549   2.453  -1.547  1.00  0.00     0.109 A   
ATOM     29  C16 UNL     1      -4.181   1.969  -2.779  1.00  0.00     0.108 A   
ATOM     30  O3  UNL     1      -5.201   3.642  -1.629  1.00  0.00    -0.316 OA  
ATOM     31  O4  UNL     1      -4.559   2.791  -3.792  1.00  0.00    -0.316 OA  
ATOM     32  C19 UNL     1      -5.232   3.839  -3.062  1.00  0.00     0.337 C   
ENDBRANCH  23  24
ENDBRANCH  20  23
ENDBRANCH  19  20
BRANCH  19  33
ATOM     33  C20 UNL     1       0.175   1.606   1.645  1.00  0.00     0.010 C   
ATOM     34  C21 UNL     1       1.557   1.701   0.957  1.00  0.00     0.017 C   
ATOM     35  C22 UNL     1      -0.435   3.028   1.632  1.00  0.00     0.017 C   
ATOM     36  C23 UNL     1       0.392   1.190   3.114  1.00  0.00     0.017 C   
ENDBRANCH  19  33
ENDBRANCH   3  19
TORSDOF 10
