REMARK SMILES CN(C)c1ccc(F)cc1Cn1cc([C@@H]([NH2+]Cc2ccc3c(c2)OCO3)C(C)(C)C)nn1
REMARK SMILES IDX 12 1 13 2 14 3 31 4 32 5 11 7 10 8 4 9 5 10 6 11 9 12 7 13
REMARK SMILES IDX 8 14 2 15 1 16 3 17 15 18 16 19 17 22 18 23 19 24 23 25
REMARK SMILES IDX 20 26 22 27 21 28 24 29 26 30 25 31 27 32 28 33 29 34 30 35
REMARK H PARENT 13 6 16 20 16 21
ROOT
ATOM     1   N2  UNL     1       1.695   0.054   0.609  1.00  0.00    -0.208 N   
ATOM     2   C10 UNL     1       0.435  -0.350   0.956  1.00  0.00     0.046 A   
ATOM     3   C11 UNL     1      -0.070  -0.893  -0.203  1.00  0.00     0.127 A   
ATOM     4   N4  UNL     1       0.880  -0.814  -1.191  1.00  0.00    -0.132 NA  
ATOM     5   N5  UNL     1       1.957  -0.242  -0.681  1.00  0.00    -0.076 NA  
ATOM     6   H12 UNL     1       0.033  -0.184   1.945  1.00  0.00     0.083 HD  
ENDROOT
BRANCH   1   7
ATOM     7   C9  UNL     1       2.693   0.708   1.437  1.00  0.00     0.171 C   
BRANCH   7   8
ATOM     8   C8  UNL     1       2.498   2.203   1.436  1.00  0.00    -0.004 A   
ATOM     9   C3  UNL     1       1.720   2.850   2.423  1.00  0.00     0.033 A   
ATOM     10  C4  UNL     1       1.565   4.247   2.353  1.00  0.00     0.027 A   
ATOM     11  C5  UNL     1       2.140   4.986   1.318  1.00  0.00     0.041 A   
ATOM     12  C7  UNL     1       3.067   2.960   0.395  1.00  0.00     0.046 A   
ATOM     13  C6  UNL     1       2.881   4.335   0.347  1.00  0.00     0.123 A   
ATOM     14  F1  UNL     1       3.422   5.039  -0.654  1.00  0.00    -0.207 F   
BRANCH   9  15
ATOM     15  N1  UNL     1       1.148   2.079   3.464  1.00  0.00    -0.337 N   
ATOM     16  C1  UNL     1      -0.264   2.392   3.728  1.00  0.00     0.129 C   
ATOM     17  C2  UNL     1       1.987   2.155   4.674  1.00  0.00     0.129 C   
ENDBRANCH   9  15
ENDBRANCH   7   8
ENDBRANCH   1   7
BRANCH   3  18
ATOM     18  C12 UNL     1      -1.430  -1.415  -0.550  1.00  0.00     0.120 C   
BRANCH  18  19
ATOM     19  N3  UNL     1      -1.724  -0.996  -1.981  1.00  0.00     0.250 N   
ATOM     20  H14 UNL     1      -2.027  -1.788  -2.552  1.00  0.00     0.199 HD  
ATOM     21  H15 UNL     1      -0.812  -0.723  -2.382  1.00  0.00     0.199 HD  
BRANCH  19  22
ATOM     22  C13 UNL     1      -2.670   0.137  -2.163  1.00  0.00     0.164 C   
BRANCH  22  23
ATOM     23  C14 UNL     1      -2.260   1.413  -1.481  1.00  0.00    -0.002 A   
ATOM     24  C15 UNL     1      -1.087   2.102  -1.876  1.00  0.00     0.012 A   
ATOM     25  C19 UNL     1      -3.045   1.937  -0.439  1.00  0.00     0.045 A   
ATOM     26  C16 UNL     1      -0.702   3.290  -1.245  1.00  0.00     0.037 A   
ATOM     27  C18 UNL     1      -2.638   3.111   0.160  1.00  0.00     0.109 A   
ATOM     28  C17 UNL     1      -1.502   3.772  -0.234  1.00  0.00     0.108 A   
ATOM     29  O1  UNL     1      -3.282   3.744   1.176  1.00  0.00    -0.316 OA  
ATOM     30  O2  UNL     1      -1.293   4.911   0.475  1.00  0.00    -0.316 OA  
ATOM     31  C20 UNL     1      -2.446   4.912   1.342  1.00  0.00     0.337 C   
ENDBRANCH  22  23
ENDBRANCH  19  22
ENDBRANCH  18  19
BRANCH  18  32
ATOM     32  C21 UNL     1      -1.596  -2.962  -0.378  1.00  0.00     0.010 C   
ATOM     33  C22 UNL     1      -0.643  -3.772  -1.280  1.00  0.00     0.017 C   
ATOM     34  C23 UNL     1      -1.325  -3.360   1.092  1.00  0.00     0.017 C   
ATOM     35  C24 UNL     1      -3.050  -3.380  -0.698  1.00  0.00     0.017 C   
ENDBRANCH  18  32
ENDBRANCH   3  18
TORSDOF 8
