REMARK SMILES CC(C)(C)[C@H]([NH2+]Cc1ccc2c(c1)OCO2)c1cn(CCc2cc(F)ccc2F)nn1
REMARK SMILES IDX 17 1 18 2 19 3 30 4 31 5 5 7 2 8 1 9 3 10 4 11 6 12 7 15
REMARK SMILES IDX 8 16 9 17 13 18 10 19 12 20 11 21 14 22 16 23 15 24 20 25
REMARK SMILES IDX 21 26 22 27 23 28 28 29 24 30 27 31 26 32 29 33 25 34
REMARK H PARENT 18 6 6 13 6 14
ROOT
ATOM     1   C14 UNL     1      -1.337   0.651  -0.475  1.00  0.00     0.127 A   
ATOM     2   C15 UNL     1      -1.658   0.999   0.819  1.00  0.00     0.045 A   
ATOM     3   N2  UNL     1      -2.639   0.113   1.164  1.00  0.00    -0.212 N   
ATOM     4   N3  UNL     1      -2.908  -0.729   0.149  1.00  0.00    -0.076 NA  
ATOM     5   N4  UNL     1      -2.111  -0.414  -0.859  1.00  0.00    -0.132 NA  
ATOM     6   H20 UNL     1      -1.277   1.741   1.508  1.00  0.00     0.083 HD  
ENDROOT
BRANCH   1   7
ATOM     7   C5  UNL     1      -0.273   1.161  -1.399  1.00  0.00     0.120 C   
BRANCH   7   8
ATOM     8   C2  UNL     1      -0.784   2.200  -2.458  1.00  0.00     0.010 C   
ATOM     9   C1  UNL     1      -1.468   3.390  -1.746  1.00  0.00     0.017 C   
ATOM     10  C3  UNL     1       0.407   2.780  -3.257  1.00  0.00     0.017 C   
ATOM     11  C4  UNL     1      -1.786   1.594  -3.460  1.00  0.00     0.017 C   
ENDBRANCH   7   8
BRANCH   7  12
ATOM     12  N1  UNL     1       0.376  -0.023  -2.090  1.00  0.00     0.250 N   
ATOM     13  H11 UNL     1      -0.397  -0.606  -2.442  1.00  0.00     0.199 HD  
ATOM     14  H12 UNL     1       0.924   0.273  -2.899  1.00  0.00     0.199 HD  
BRANCH  12  15
ATOM     15  C6  UNL     1       1.230  -0.902  -1.232  1.00  0.00     0.164 C   
BRANCH  15  16
ATOM     16  C7  UNL     1       2.511  -0.233  -0.815  1.00  0.00    -0.002 A   
ATOM     17  C8  UNL     1       3.579  -0.093  -1.734  1.00  0.00     0.012 A   
ATOM     18  C12 UNL     1       2.644   0.289   0.483  1.00  0.00     0.045 A   
ATOM     19  C9  UNL     1       4.761   0.558  -1.366  1.00  0.00     0.037 A   
ATOM     20  C11 UNL     1       3.822   0.924   0.814  1.00  0.00     0.109 A   
ATOM     21  C10 UNL     1       4.851   1.056  -0.085  1.00  0.00     0.108 A   
ATOM     22  O1  UNL     1       4.109   1.483   2.018  1.00  0.00    -0.316 OA  
ATOM     23  O2  UNL     1       5.917   1.714   0.440  1.00  0.00    -0.316 OA  
ATOM     24  C13 UNL     1       5.454   1.960   1.785  1.00  0.00     0.337 C   
ENDBRANCH  15  16
ENDBRANCH  12  15
ENDBRANCH   7  12
ENDBRANCH   1   7
BRANCH   3  25
ATOM     25  C16 UNL     1      -3.279  -0.056   2.454  1.00  0.00     0.139 C   
BRANCH  25  26
ATOM     26  C17 UNL     1      -2.875  -1.358   3.152  1.00  0.00     0.060 C   
BRANCH  26  27
ATOM     27  C18 UNL     1      -1.387  -1.468   3.384  1.00  0.00    -0.008 A   
ATOM     28  C19 UNL     1      -0.593  -2.276   2.558  1.00  0.00     0.046 A   
ATOM     29  C23 UNL     1      -0.764  -0.729   4.395  1.00  0.00     0.126 A   
ATOM     30  C20 UNL     1       0.785  -2.323   2.752  1.00  0.00     0.123 A   
ATOM     31  C22 UNL     1       0.613  -0.790   4.596  1.00  0.00     0.042 A   
ATOM     32  C21 UNL     1       1.395  -1.592   3.766  1.00  0.00     0.042 A   
ATOM     33  F2  UNL     1      -1.500   0.079   5.170  1.00  0.00    -0.207 F   
ATOM     34  F1  UNL     1       1.537  -3.050   1.916  1.00  0.00    -0.207 F   
ENDBRANCH  26  27
ENDBRANCH  25  26
ENDBRANCH   3  25
TORSDOF 8
