REMARK SMILES Cc1cc(CCn2cc([C@H](CC(C)C)[NH2+]Cc3ccc4c(c3)OCO4)nn2)ccc1F
REMARK SMILES IDX 7 1 8 2 9 3 26 4 27 5 6 7 5 8 4 9 2 10 3 11 30 12 29 13
REMARK SMILES IDX 28 14 1 15 31 16 10 17 11 18 12 19 13 20 14 21 15 22 16 25
REMARK SMILES IDX 17 26 18 27 22 28 19 29 21 30 20 31 23 32 25 33 24 34
REMARK H PARENT 8 6 15 23 15 24
ROOT
ATOM     1   N1  UNL     1       0.694   2.289  -2.889  1.00  0.00    -0.212 N   
ATOM     2   C7  UNL     1      -0.500   1.718  -2.547  1.00  0.00     0.045 A   
ATOM     3   C8  UNL     1      -0.798   2.283  -1.329  1.00  0.00     0.127 A   
ATOM     4   N3  UNL     1       0.183   3.180  -0.994  1.00  0.00    -0.132 NA  
ATOM     5   N4  UNL     1       1.088   3.178  -1.959  1.00  0.00    -0.076 NA  
ATOM     6   H9  UNL     1      -0.974   0.959  -3.154  1.00  0.00     0.083 HD  
ENDROOT
BRANCH   1   7
ATOM     7   C6  UNL     1       1.550   1.957  -4.008  1.00  0.00     0.139 C   
BRANCH   7   8
ATOM     8   C5  UNL     1       2.827   1.221  -3.589  1.00  0.00     0.057 C   
BRANCH   8   9
ATOM     9   C4  UNL     1       2.564  -0.024  -2.768  1.00  0.00    -0.046 A   
ATOM     10  C2  UNL     1       2.662  -1.188  -0.624  1.00  0.00    -0.015 A   
ATOM     11  C3  UNL     1       2.933  -0.061  -1.412  1.00  0.00     0.010 A   
ATOM     12  C24 UNL     1       2.022  -2.277  -1.216  1.00  0.00     0.126 A   
ATOM     13  C23 UNL     1       1.662  -2.264  -2.559  1.00  0.00     0.040 A   
ATOM     14  C22 UNL     1       1.937  -1.141  -3.339  1.00  0.00     0.007 A   
ATOM     15  C1  UNL     1       3.095  -1.258   0.809  1.00  0.00     0.047 C   
ATOM     16  F1  UNL     1       1.735  -3.360  -0.479  1.00  0.00    -0.207 F   
ENDBRANCH   8   9
ENDBRANCH   7   8
ENDBRANCH   1   7
BRANCH   3  17
ATOM     17  C9  UNL     1      -1.893   1.994  -0.354  1.00  0.00     0.114 C   
BRANCH  17  18
ATOM     18  C10 UNL     1      -2.963   3.102  -0.384  1.00  0.00     0.064 C   
BRANCH  18  19
ATOM     19  C11 UNL     1      -4.178   2.912   0.550  1.00  0.00    -0.012 C   
ATOM     20  C12 UNL     1      -5.157   4.075   0.362  1.00  0.00     0.007 C   
ATOM     21  C13 UNL     1      -4.901   1.586   0.312  1.00  0.00     0.007 C   
ENDBRANCH  18  19
ENDBRANCH  17  18
BRANCH  17  22
ATOM     22  N2  UNL     1      -1.318   1.889   1.032  1.00  0.00     0.249 N   
ATOM     23  H20 UNL     1      -2.043   1.904   1.754  1.00  0.00     0.199 HD  
ATOM     24  H21 UNL     1      -0.741   2.731   1.179  1.00  0.00     0.199 HD  
BRANCH  22  25
ATOM     25  C14 UNL     1      -0.444   0.702   1.261  1.00  0.00     0.164 C   
BRANCH  25  26
ATOM     26  C15 UNL     1       0.149   0.741   2.640  1.00  0.00    -0.002 A   
ATOM     27  C16 UNL     1      -0.451   0.024   3.702  1.00  0.00     0.012 A   
ATOM     28  C20 UNL     1       1.286   1.529   2.890  1.00  0.00     0.045 A   
ATOM     29  C17 UNL     1       0.080   0.081   4.996  1.00  0.00     0.037 A   
ATOM     30  C19 UNL     1       1.784   1.563   4.176  1.00  0.00     0.109 A   
ATOM     31  C18 UNL     1       1.198   0.860   5.199  1.00  0.00     0.108 A   
ATOM     32  O1  UNL     1       2.871   2.267   4.584  1.00  0.00    -0.316 OA  
ATOM     33  O2  UNL     1       1.843   1.032   6.382  1.00  0.00    -0.316 OA  
ATOM     34  C21 UNL     1       2.916   1.914   5.986  1.00  0.00     0.337 C   
ENDBRANCH  25  26
ENDBRANCH  22  25
ENDBRANCH  17  22
ENDBRANCH   3  17
TORSDOF 9
