REMARK SMILES c1cc2cc(Cn3cc([C@@H]([NH2+]Cc4ccc5c(c4)OCO5)C4CCCCC4)nn3)ccn2n1
REMARK SMILES IDX 10 1 9 2 7 3 8 4 29 5 28 6 6 8 5 9 1 10 2 11 33 12 3 13
REMARK SMILES IDX 32 14 4 15 31 16 30 17 11 18 12 21 13 22 14 23 18 24 15 25
REMARK SMILES IDX 17 26 16 27 19 28 21 29 20 30 22 31 23 32 27 33 24 34 26 35
REMARK SMILES IDX 25 36
REMARK H PARENT 8 7 11 19 11 20
ROOT
ATOM     1   C9  UNL     1       0.915   0.636   1.357  1.00  0.00     0.117 C   
ENDROOT
BRANCH   1   2
ATOM     2   C8  UNL     1       0.446  -0.749   1.050  1.00  0.00     0.127 A   
ATOM     3   N1  UNL     1      -0.109  -2.660   0.203  1.00  0.00    -0.208 N   
ATOM     4   C7  UNL     1       0.650  -1.551  -0.051  1.00  0.00     0.046 A   
ATOM     5   N4  UNL     1      -0.742  -2.548   1.387  1.00  0.00    -0.076 NA  
ATOM     6   N3  UNL     1      -0.407  -1.383   1.916  1.00  0.00    -0.132 NA  
ATOM     7   H6  UNL     1       1.217  -1.433  -0.964  1.00  0.00     0.083 HD  
BRANCH   3   8
ATOM     8   C6  UNL     1      -0.324  -3.818  -0.653  1.00  0.00     0.169 C   
BRANCH   8   9
ATOM     9   C5  UNL     1      -1.234  -3.490  -1.813  1.00  0.00    -0.025 A   
ATOM     10  C1  UNL     1      -2.854  -2.582  -5.930  1.00  0.00     0.133 A   
ATOM     11  C2  UNL     1      -1.562  -2.926  -5.502  1.00  0.00     0.047 A   
ATOM     12  N6  UNL     1      -3.732  -2.517  -4.928  1.00  0.00    -0.185 NA  
ATOM     13  C3  UNL     1      -1.682  -3.085  -4.142  1.00  0.00     0.058 A   
ATOM     14  N5  UNL     1      -3.021  -2.846  -3.823  1.00  0.00    -0.201 N   
ATOM     15  C4  UNL     1      -0.785  -3.422  -3.088  1.00  0.00     0.031 A   
ATOM     16  C25 UNL     1      -3.490  -2.942  -2.514  1.00  0.00     0.102 A   
ATOM     17  C24 UNL     1      -2.651  -3.259  -1.515  1.00  0.00     0.023 A   
ENDBRANCH   8   9
ENDBRANCH   3   8
ENDBRANCH   1   2
BRANCH   1  18
ATOM     18  N2  UNL     1      -0.176   1.415   2.065  1.00  0.00     0.249 N   
ATOM     19  H8  UNL     1      -0.473   0.839   2.864  1.00  0.00     0.199 HD  
ATOM     20  H9  UNL     1       0.203   2.290   2.439  1.00  0.00     0.199 HD  
BRANCH  18  21
ATOM     21  C10 UNL     1      -1.407   1.711   1.270  1.00  0.00     0.164 C   
BRANCH  21  22
ATOM     22  C11 UNL     1      -1.147   2.590   0.079  1.00  0.00    -0.002 A   
ATOM     23  C12 UNL     1      -0.863   3.967   0.250  1.00  0.00     0.012 A   
ATOM     24  C16 UNL     1      -1.154   2.040  -1.215  1.00  0.00     0.045 A   
ATOM     25  C13 UNL     1      -0.584   4.784  -0.852  1.00  0.00     0.037 A   
ATOM     26  C15 UNL     1      -0.873   2.873  -2.277  1.00  0.00     0.109 A   
ATOM     27  C14 UNL     1      -0.596   4.206  -2.102  1.00  0.00     0.108 A   
ATOM     28  O1  UNL     1      -0.829   2.500  -3.583  1.00  0.00    -0.316 OA  
ATOM     29  O2  UNL     1      -0.348   4.842  -3.276  1.00  0.00    -0.316 OA  
ATOM     30  C17 UNL     1      -0.541   3.766  -4.219  1.00  0.00     0.337 C   
ENDBRANCH  21  22
ENDBRANCH  18  21
ENDBRANCH   1  18
BRANCH   1  31
ATOM     31  C18 UNL     1       2.203   0.700   2.224  1.00  0.00     0.043 C   
ATOM     32  C19 UNL     1       2.079   0.024   3.604  1.00  0.00     0.010 C   
ATOM     33  C23 UNL     1       3.421   0.137   1.465  1.00  0.00     0.010 C   
ATOM     34  C20 UNL     1       3.369   0.155   4.413  1.00  0.00     0.001 C   
ATOM     35  C22 UNL     1       4.706   0.275   2.280  1.00  0.00     0.001 C   
ATOM     36  C21 UNL     1       4.574  -0.383   3.649  1.00  0.00     0.000 C   
ENDBRANCH   1  31
TORSDOF 7
