REMARK SMILES CC(C)(C)[C@H]([NH2+]Cc1ccc2c(c1)OCO2)c1cn(CCCc2ccc(N)cc2)nn1
REMARK SMILES IDX 20 1 19 2 17 3 18 4 31 5 30 6 5 8 2 9 1 10 3 11 4 12 6 13
REMARK SMILES IDX 7 16 8 17 9 18 13 19 10 20 12 21 11 22 14 23 16 24 15 25
REMARK SMILES IDX 21 26 22 27 23 28 24 29 29 30 25 31 28 32 26 33 27 34
REMARK H PARENT 18 7 6 14 6 15 27 35 27 36
ROOT
ATOM     1   C16 UNL     1      -2.272   1.942   2.872  1.00  0.00     0.134 C   
ENDROOT
BRANCH   1   2
ATOM     2   N2  UNL     1      -1.857   0.811   2.071  1.00  0.00    -0.212 N   
ATOM     3   C14 UNL     1      -1.452  -0.595   0.475  1.00  0.00     0.127 A   
ATOM     4   C15 UNL     1      -2.234   0.495   0.798  1.00  0.00     0.045 A   
ATOM     5   N5  UNL     1      -0.737  -0.964   1.583  1.00  0.00    -0.132 NA  
ATOM     6   N4  UNL     1      -0.990  -0.097   2.552  1.00  0.00    -0.076 NA  
ATOM     7   H20 UNL     1      -2.941   1.090   0.238  1.00  0.00     0.083 HD  
BRANCH   3   8
ATOM     8   C5  UNL     1      -1.302  -1.308  -0.837  1.00  0.00     0.120 C   
BRANCH   8   9
ATOM     9   C2  UNL     1      -2.180  -2.606  -0.996  1.00  0.00     0.010 C   
ATOM     10  C1  UNL     1      -2.118  -3.134  -2.448  1.00  0.00     0.017 C   
ATOM     11  C3  UNL     1      -3.665  -2.266  -0.709  1.00  0.00     0.017 C   
ATOM     12  C4  UNL     1      -1.777  -3.756  -0.057  1.00  0.00     0.017 C   
ENDBRANCH   8   9
BRANCH   8  13
ATOM     13  N1  UNL     1       0.127  -1.506  -1.278  1.00  0.00     0.250 N   
ATOM     14  H11 UNL     1       0.482  -0.575  -1.580  1.00  0.00     0.199 HD  
ATOM     15  H12 UNL     1       0.171  -2.060  -2.135  1.00  0.00     0.199 HD  
BRANCH  13  16
ATOM     16  C6  UNL     1       1.137  -2.014  -0.308  1.00  0.00     0.164 C   
BRANCH  16  17
ATOM     17  C7  UNL     1       2.344  -2.546  -1.037  1.00  0.00    -0.002 A   
ATOM     18  C8  UNL     1       2.316  -3.840  -1.612  1.00  0.00     0.012 A   
ATOM     19  C12 UNL     1       3.489  -1.747  -1.193  1.00  0.00     0.045 A   
ATOM     20  C9  UNL     1       3.410  -4.331  -2.333  1.00  0.00     0.037 A   
ATOM     21  C11 UNL     1       4.548  -2.260  -1.912  1.00  0.00     0.109 A   
ATOM     22  C10 UNL     1       4.511  -3.515  -2.467  1.00  0.00     0.108 A   
ATOM     23  O1  UNL     1       5.718  -1.615  -2.162  1.00  0.00    -0.316 OA  
ATOM     24  O2  UNL     1       5.654  -3.821  -3.132  1.00  0.00    -0.316 OA  
ATOM     25  C13 UNL     1       6.434  -2.628  -2.905  1.00  0.00     0.337 C   
ENDBRANCH  16  17
ENDBRANCH  13  16
ENDBRANCH   8  13
ENDBRANCH   3   8
ENDBRANCH   1   2
BRANCH   1  26
ATOM     26  C17 UNL     1      -1.175   2.986   3.123  1.00  0.00     0.026 C   
BRANCH  26  27
ATOM     27  C18 UNL     1      -0.873   3.911   1.930  1.00  0.00     0.037 C   
BRANCH  27  28
ATOM     28  C19 UNL     1      -0.237   3.229   0.744  1.00  0.00    -0.048 A   
ATOM     29  C20 UNL     1      -0.873   3.228  -0.504  1.00  0.00     0.005 A   
ATOM     30  C24 UNL     1       0.985   2.560   0.877  1.00  0.00     0.005 A   
ATOM     31  C21 UNL     1      -0.339   2.499  -1.571  1.00  0.00     0.023 A   
ATOM     32  C23 UNL     1       1.524   1.847  -0.196  1.00  0.00     0.023 A   
ATOM     33  C22 UNL     1       0.872   1.819  -1.430  1.00  0.00     0.023 A   
BRANCH  33  34
ATOM     34  N3  UNL     1       1.282   0.891  -2.421  1.00  0.00    -0.358 N   
ATOM     35  H29 UNL     1       1.000   1.235  -3.345  1.00  0.00     0.143 HD  
ATOM     36  H30 UNL     1       2.308   0.833  -2.428  1.00  0.00     0.143 HD  
ENDBRANCH  33  34
ENDBRANCH  27  28
ENDBRANCH  26  27
ENDBRANCH   1  26
TORSDOF 10
