REMARK SMILES CC(C)(C)[C@H]([NH2+]Cc1ccc2c(c1)OCO2)c1cn(Cc2cc(Cl)ccn2)nn1
REMARK SMILES IDX 17 1 18 2 19 3 28 4 29 5 5 7 2 8 1 9 3 10 4 11 6 12 7 15
REMARK SMILES IDX 8 16 9 17 13 18 10 19 12 20 11 21 14 22 16 23 15 24 20 25
REMARK SMILES IDX 21 26 22 27 27 28 23 29 26 30 25 31 24 32
REMARK H PARENT 18 6 6 13 6 14
ROOT
ATOM     1   C14 UNL     1       1.663   1.121  -0.222  1.00  0.00     0.127 A   
ATOM     2   C15 UNL     1       2.037   2.247   0.477  1.00  0.00     0.046 A   
ATOM     3   N2  UNL     1       1.525   3.281  -0.259  1.00  0.00    -0.206 N   
ATOM     4   N4  UNL     1       0.861   2.819  -1.337  1.00  0.00    -0.076 NA  
ATOM     5   N5  UNL     1       0.941   1.499  -1.326  1.00  0.00    -0.132 NA  
ATOM     6   H20 UNL     1       2.582   2.412   1.398  1.00  0.00     0.083 HD  
ENDROOT
BRANCH   1   7
ATOM     7   C5  UNL     1       1.843  -0.337   0.078  1.00  0.00     0.120 C   
BRANCH   7   8
ATOM     8   C2  UNL     1       3.131  -0.971  -0.556  1.00  0.00     0.010 C   
ATOM     9   C1  UNL     1       3.304  -2.430  -0.073  1.00  0.00     0.017 C   
ATOM     10  C3  UNL     1       4.388  -0.196  -0.098  1.00  0.00     0.017 C   
ATOM     11  C4  UNL     1       3.096  -0.972  -2.097  1.00  0.00     0.017 C   
ENDBRANCH   7   8
BRANCH   7  12
ATOM     12  N1  UNL     1       0.610  -1.077  -0.387  1.00  0.00     0.250 N   
ATOM     13  H11 UNL     1       0.770  -2.081  -0.499  1.00  0.00     0.199 HD  
ATOM     14  H12 UNL     1       0.387  -0.716  -1.327  1.00  0.00     0.199 HD  
BRANCH  12  15
ATOM     15  C6  UNL     1      -0.605  -0.881   0.453  1.00  0.00     0.164 C   
BRANCH  15  16
ATOM     16  C7  UNL     1      -1.783  -1.583  -0.161  1.00  0.00    -0.002 A   
ATOM     17  C8  UNL     1      -2.566  -0.928  -1.142  1.00  0.00     0.012 A   
ATOM     18  C12 UNL     1      -2.079  -2.910   0.191  1.00  0.00     0.045 A   
ATOM     19  C9  UNL     1      -3.639  -1.582  -1.757  1.00  0.00     0.037 A   
ATOM     20  C11 UNL     1      -3.144  -3.525  -0.435  1.00  0.00     0.109 A   
ATOM     21  C10 UNL     1      -3.902  -2.880  -1.381  1.00  0.00     0.108 A   
ATOM     22  O1  UNL     1      -3.563  -4.798  -0.213  1.00  0.00    -0.316 OA  
ATOM     23  O2  UNL     1      -4.896  -3.665  -1.872  1.00  0.00    -0.316 OA  
ATOM     24  C13 UNL     1      -4.693  -4.876  -1.112  1.00  0.00     0.337 C   
ENDBRANCH  15  16
ENDBRANCH  12  15
ENDBRANCH   7  12
ENDBRANCH   1   7
BRANCH   3  25
ATOM     25  C16 UNL     1       1.621   4.703   0.002  1.00  0.00     0.190 C   
BRANCH  25  26
ATOM     26  C17 UNL     1       0.550   5.124   0.971  1.00  0.00     0.061 A   
ATOM     27  C18 UNL     1      -0.694   5.547   0.516  1.00  0.00     0.046 A   
ATOM     28  N3  UNL     1       0.848   5.039   2.293  1.00  0.00    -0.259 NA  
ATOM     29  C19 UNL     1      -1.647   5.914   1.458  1.00  0.00     0.044 A   
ATOM     30  C21 UNL     1      -0.101   5.420   3.179  1.00  0.00     0.113 A   
ATOM     31  C20 UNL     1      -1.357   5.859   2.813  1.00  0.00     0.040 A   
ATOM     32  CL1 UNL     1      -3.201   6.434   0.937  1.00  0.00    -0.084 Cl  
ENDBRANCH  25  26
ENDBRANCH   3  25
TORSDOF 7
