REMARK SMILES c1cc2c([nH]1)CCC[C@@H]2n1cc([C@@H]([NH2+]Cc2ccc3c(c2)OCO3)C2CCCC2)nn1
REMARK SMILES IDX 13 1 12 2 10 3 11 4 31 5 30 6 9 8 1 9 2 10 5 11 3 12 4 13
REMARK SMILES IDX 6 14 8 15 7 16 14 18 15 21 16 22 17 23 21 24 18 25 20 26
REMARK SMILES IDX 19 27 22 28 24 29 23 30 25 31 26 32 29 33 27 34 28 35
REMARK H PARENT 11 7 5 17 14 19 14 20
ROOT
ATOM     1   C11 UNL     1       1.613   0.244   0.274  1.00  0.00     0.117 C   
ENDROOT
BRANCH   1   2
ATOM     2   C10 UNL     1       0.149   0.208   0.573  1.00  0.00     0.127 A   
ATOM     3   N2  UNL     1      -1.959  -0.231   0.822  1.00  0.00    -0.205 N   
ATOM     4   C9  UNL     1      -0.822  -0.696   0.212  1.00  0.00     0.046 A   
ATOM     5   N5  UNL     1      -1.711   0.942   1.444  1.00  0.00    -0.075 NA  
ATOM     6   N4  UNL     1      -0.422   1.208   1.318  1.00  0.00    -0.132 NA  
ATOM     7   H11 UNL     1      -0.807  -1.614  -0.359  1.00  0.00     0.083 HD  
BRANCH   3   8
ATOM     8   C8  UNL     1      -3.307  -0.806   0.860  1.00  0.00     0.131 C   
ATOM     9   C1  UNL     1      -2.985  -4.493   1.301  1.00  0.00     0.072 A   
ATOM     10  C2  UNL     1      -2.826  -3.228   1.825  1.00  0.00     0.022 A   
ATOM     11  N1  UNL     1      -3.511  -4.380   0.035  1.00  0.00    -0.324 N   
ATOM     12  C3  UNL     1      -3.256  -2.308   0.835  1.00  0.00    -0.007 A   
ATOM     13  C4  UNL     1      -3.667  -3.052  -0.257  1.00  0.00     0.012 A   
ATOM     14  C5  UNL     1      -4.249  -2.522  -1.520  1.00  0.00     0.052 C   
ATOM     15  C7  UNL     1      -4.182  -0.269  -0.302  1.00  0.00     0.030 C   
ATOM     16  C6  UNL     1      -3.950  -1.016  -1.635  1.00  0.00     0.008 C   
ATOM     17  H3  UNL     1      -3.769  -5.156  -0.563  1.00  0.00     0.152 HD  
ENDBRANCH   3   8
ENDBRANCH   1   2
BRANCH   1  18
ATOM     18  N3  UNL     1       2.096   1.670   0.195  1.00  0.00     0.249 N   
ATOM     19  H13 UNL     1       3.119   1.722   0.199  1.00  0.00     0.199 HD  
ATOM     20  H14 UNL     1       1.775   2.148   1.050  1.00  0.00     0.199 HD  
BRANCH  18  21
ATOM     21  C12 UNL     1       1.590   2.454  -0.969  1.00  0.00     0.164 C   
BRANCH  21  22
ATOM     22  C13 UNL     1       2.314   3.769  -1.069  1.00  0.00    -0.002 A   
ATOM     23  C14 UNL     1       3.424   3.905  -1.938  1.00  0.00     0.012 A   
ATOM     24  C18 UNL     1       1.928   4.855  -0.263  1.00  0.00     0.045 A   
ATOM     25  C15 UNL     1       4.134   5.109  -2.016  1.00  0.00     0.037 A   
ATOM     26  C17 UNL     1       2.654   6.026  -0.359  1.00  0.00     0.109 A   
ATOM     27  C16 UNL     1       3.723   6.150  -1.212  1.00  0.00     0.108 A   
ATOM     28  O1  UNL     1       2.425   7.162   0.350  1.00  0.00    -0.316 OA  
ATOM     29  O2  UNL     1       4.291   7.383  -1.159  1.00  0.00    -0.316 OA  
ATOM     30  C19 UNL     1       3.466   8.024  -0.159  1.00  0.00     0.337 C   
ENDBRANCH  21  22
ENDBRANCH  18  21
ENDBRANCH   1  18
BRANCH   1  31
ATOM     31  C20 UNL     1       2.433  -0.496   1.353  1.00  0.00     0.043 C   
ATOM     32  C21 UNL     1       2.107  -1.995   1.434  1.00  0.00     0.010 C   
ATOM     33  C24 UNL     1       3.945  -0.518   1.106  1.00  0.00     0.010 C   
ATOM     34  C22 UNL     1       3.317  -2.642   2.101  1.00  0.00     0.001 C   
ATOM     35  C23 UNL     1       4.445  -1.618   2.032  1.00  0.00     0.001 C   
ENDBRANCH   1  31
TORSDOF 6
