REMARK SMILES c1cc2c([nH]1)CCC[C@H]2n1cc([C@@H]([NH2+]Cc2ccc3c(c2)OCO3)C2CCCC2)nn1
REMARK SMILES IDX 13 1 12 2 10 3 11 4 31 5 30 6 9 8 1 9 2 10 5 11 3 12 4 13
REMARK SMILES IDX 6 14 8 15 7 16 14 18 15 21 16 22 17 23 21 24 18 25 20 26
REMARK SMILES IDX 19 27 22 28 24 29 23 30 25 31 26 32 29 33 27 34 28 35
REMARK H PARENT 11 7 5 17 14 19 14 20
ROOT
ATOM     1   C11 UNL     1       0.757   0.521  -0.297  1.00  0.00     0.117 C   
ENDROOT
BRANCH   1   2
ATOM     2   C10 UNL     1       0.392   0.214   1.119  1.00  0.00     0.127 A   
ATOM     3   N2  UNL     1      -0.330  -0.558   3.013  1.00  0.00    -0.205 N   
ATOM     4   C9  UNL     1      -0.265  -0.858   1.677  1.00  0.00     0.046 A   
ATOM     5   N5  UNL     1       0.258   0.635   3.255  1.00  0.00    -0.075 NA  
ATOM     6   N4  UNL     1       0.707   1.111   2.107  1.00  0.00    -0.132 NA  
ATOM     7   H11 UNL     1      -0.683  -1.768   1.268  1.00  0.00     0.083 HD  
BRANCH   3   8
ATOM     8   C8  UNL     1      -0.894  -1.330   4.123  1.00  0.00     0.131 C   
ATOM     9   C1  UNL     1      -4.152  -2.762   3.017  1.00  0.00     0.072 A   
ATOM     10  C2  UNL     1      -3.405  -1.648   3.334  1.00  0.00     0.022 A   
ATOM     11  N1  UNL     1      -3.365  -3.875   3.178  1.00  0.00    -0.324 N   
ATOM     12  C3  UNL     1      -2.108  -2.100   3.688  1.00  0.00    -0.007 A   
ATOM     13  C4  UNL     1      -2.119  -3.478   3.578  1.00  0.00     0.012 A   
ATOM     14  C5  UNL     1      -0.995  -4.401   3.896  1.00  0.00     0.052 C   
ATOM     15  C7  UNL     1       0.163  -2.276   4.749  1.00  0.00     0.030 C   
ATOM     16  C6  UNL     1       0.322  -3.606   3.980  1.00  0.00     0.008 C   
ATOM     17  H3  UNL     1      -3.671  -4.832   3.043  1.00  0.00     0.152 HD  
ENDBRANCH   3   8
ENDBRANCH   1   2
BRANCH   1  18
ATOM     18  N3  UNL     1       0.901   2.014  -0.473  1.00  0.00     0.249 N   
ATOM     19  H13 UNL     1       1.405   2.347   0.363  1.00  0.00     0.199 HD  
ATOM     20  H14 UNL     1       1.481   2.243  -1.284  1.00  0.00     0.199 HD  
BRANCH  18  21
ATOM     21  C12 UNL     1      -0.373   2.788  -0.548  1.00  0.00     0.164 C   
BRANCH  21  22
ATOM     22  C13 UNL     1      -1.066   2.624  -1.873  1.00  0.00    -0.002 A   
ATOM     23  C14 UNL     1      -0.555   3.262  -3.030  1.00  0.00     0.012 A   
ATOM     24  C18 UNL     1      -2.209   1.812  -1.979  1.00  0.00     0.045 A   
ATOM     25  C15 UNL     1      -1.169   3.090  -4.275  1.00  0.00     0.037 A   
ATOM     26  C17 UNL     1      -2.789   1.664  -3.222  1.00  0.00     0.109 A   
ATOM     27  C16 UNL     1      -2.284   2.283  -4.338  1.00  0.00     0.108 A   
ATOM     28  O1  UNL     1      -3.888   0.913  -3.497  1.00  0.00    -0.316 OA  
ATOM     29  O2  UNL     1      -3.000   2.000  -5.456  1.00  0.00    -0.316 OA  
ATOM     30  C19 UNL     1      -4.037   1.154  -4.915  1.00  0.00     0.337 C   
ENDBRANCH  21  22
ENDBRANCH  18  21
ENDBRANCH   1  18
BRANCH   1  31
ATOM     31  C20 UNL     1       2.051  -0.204  -0.716  1.00  0.00     0.043 C   
ATOM     32  C21 UNL     1       2.352  -0.153  -2.219  1.00  0.00     0.010 C   
ATOM     33  C24 UNL     1       3.352   0.310  -0.095  1.00  0.00     0.010 C   
ATOM     34  C22 UNL     1       3.846  -0.456  -2.341  1.00  0.00     0.001 C   
ATOM     35  C23 UNL     1       4.421  -0.383  -0.928  1.00  0.00     0.001 C   
ENDBRANCH   1  31
TORSDOF 6
