REMARK SMILES COc1cccc([C@H](O)Cn2cc([C@H](CC(C)C)[NH2+]Cc3ccc4c(c3)OCO4)nn2)c1
REMARK SMILES IDX 11 1 12 2 13 3 30 4 31 5 10 7 8 8 7 9 3 10 4 11 32 12 5 13
REMARK SMILES IDX 6 14 2 15 1 16 9 17 14 19 15 20 16 21 17 22 18 23 19 24
REMARK SMILES IDX 20 27 21 28 22 29 26 30 23 31 25 32 24 33 27 34 29 35 28 36
REMARK H PARENT 12 6 9 18 19 25 19 26
ROOT
ATOM     1   N1  UNL     1       1.583   0.002   3.906  1.00  0.00    -0.209 N   
ATOM     2   C9  UNL     1       2.246   0.018   2.711  1.00  0.00     0.045 A   
ATOM     3   C10 UNL     1       1.817  -1.126   2.074  1.00  0.00     0.127 A   
ATOM     4   N3  UNL     1       0.961  -1.803   2.908  1.00  0.00    -0.132 NA  
ATOM     5   N4  UNL     1       0.826  -1.104   4.022  1.00  0.00    -0.076 NA  
ATOM     6   H11 UNL     1       2.890   0.836   2.420  1.00  0.00     0.083 HD  
ENDROOT
BRANCH   1   7
ATOM     7   C8  UNL     1       1.524   1.045   4.905  1.00  0.00     0.170 C   
BRANCH   7   8
ATOM     8   C7  UNL     1       0.163   1.751   4.946  1.00  0.00     0.164 C   
BRANCH   8   9
ATOM     9   C6  UNL     1      -0.198   2.407   3.625  1.00  0.00    -0.015 A   
ATOM     10  C2  UNL     1      -1.340   2.289   1.470  1.00  0.00     0.075 A   
ATOM     11  C3  UNL     1      -0.820   3.534   1.125  1.00  0.00     0.033 A   
ATOM     12  C24 UNL     1      -1.027   1.732   2.713  1.00  0.00     0.040 A   
ATOM     13  C4  UNL     1       0.004   4.218   2.023  1.00  0.00     0.003 A   
ATOM     14  C5  UNL     1       0.319   3.657   3.262  1.00  0.00     0.006 A   
BRANCH  10  15
ATOM     15  O1  UNL     1      -2.117   1.504   0.661  1.00  0.00    -0.349 OA  
ATOM     16  C1  UNL     1      -2.873   2.200  -0.327  1.00  0.00     0.203 C   
ENDBRANCH  10  15
ENDBRANCH   8   9
BRANCH   8  17
ATOM     17  O2  UNL     1       0.187   2.736   5.982  1.00  0.00    -0.387 OA  
ATOM     18  H8  UNL     1      -0.625   3.269   5.896  1.00  0.00     0.211 HD  
ENDBRANCH   8  17
ENDBRANCH   7   8
ENDBRANCH   1   7
BRANCH   3  19
ATOM     19  C11 UNL     1       2.048  -1.668   0.698  1.00  0.00     0.114 C   
BRANCH  19  20
ATOM     20  C12 UNL     1       2.734  -0.682  -0.266  1.00  0.00     0.064 C   
BRANCH  20  21
ATOM     21  C13 UNL     1       2.976  -1.192  -1.703  1.00  0.00    -0.012 C   
ATOM     22  C14 UNL     1       3.607  -0.078  -2.544  1.00  0.00     0.007 C   
ATOM     23  C15 UNL     1       3.869  -2.433  -1.738  1.00  0.00     0.007 C   
ENDBRANCH  20  21
ENDBRANCH  19  20
BRANCH  19  24
ATOM     24  N2  UNL     1       0.752  -2.182   0.126  1.00  0.00     0.249 N   
ATOM     25  H22 UNL     1       0.913  -2.760  -0.705  1.00  0.00     0.199 HD  
ATOM     26  H23 UNL     1       0.369  -2.820   0.840  1.00  0.00     0.199 HD  
BRANCH  24  27
ATOM     27  C16 UNL     1      -0.320  -1.179  -0.142  1.00  0.00     0.164 C   
BRANCH  27  28
ATOM     28  C17 UNL     1      -1.596  -1.863  -0.545  1.00  0.00    -0.002 A   
ATOM     29  C18 UNL     1      -2.596  -2.124   0.421  1.00  0.00     0.012 A   
ATOM     30  C22 UNL     1      -1.787  -2.282  -1.873  1.00  0.00     0.045 A   
ATOM     31  C19 UNL     1      -3.779  -2.783   0.071  1.00  0.00     0.037 A   
ATOM     32  C21 UNL     1      -2.963  -2.933  -2.183  1.00  0.00     0.109 A   
ATOM     33  C20 UNL     1      -3.932  -3.175  -1.240  1.00  0.00     0.108 A   
ATOM     34  O3  UNL     1      -3.302  -3.405  -3.412  1.00  0.00    -0.316 OA  
ATOM     35  O4  UNL     1      -5.007  -3.824  -1.757  1.00  0.00    -0.316 OA  
ATOM     36  C23 UNL     1      -4.616  -3.950  -3.140  1.00  0.00     0.337 C   
ENDBRANCH  27  28
ENDBRANCH  24  27
ENDBRANCH  19  24
ENDBRANCH   3  19
TORSDOF 11
