REMARK SMILES COc1cccc([C@@H](O)Cn2cc([C@H](CC(C)C)[NH2+]Cc3ccc4c(c3)OCO4)nn2)c1
REMARK SMILES IDX 11 1 12 2 13 3 30 4 31 5 10 7 8 8 7 9 3 10 4 11 32 12 5 13
REMARK SMILES IDX 6 14 2 15 1 16 9 17 14 19 15 20 16 21 17 22 18 23 19 24
REMARK SMILES IDX 20 27 21 28 22 29 26 30 23 31 25 32 24 33 27 34 29 35 28 36
REMARK H PARENT 12 6 9 18 19 25 19 26
ROOT
ATOM     1   N1  UNL     1       1.725  -2.324  -1.348  1.00  0.00    -0.209 N   
ATOM     2   C9  UNL     1       0.366  -2.192  -1.306  1.00  0.00     0.045 A   
ATOM     3   C10 UNL     1       0.146  -0.892  -1.701  1.00  0.00     0.127 A   
ATOM     4   N3  UNL     1       1.349  -0.298  -1.984  1.00  0.00    -0.132 NA  
ATOM     5   N4  UNL     1       2.306  -1.186  -1.769  1.00  0.00    -0.076 NA  
ATOM     6   H11 UNL     1      -0.283  -2.988  -0.968  1.00  0.00     0.083 HD  
ENDROOT
BRANCH   1   7
ATOM     7   C8  UNL     1       2.528  -3.440  -0.905  1.00  0.00     0.170 C   
BRANCH   7   8
ATOM     8   C7  UNL     1       3.325  -3.137   0.371  1.00  0.00     0.164 C   
BRANCH   8   9
ATOM     9   C6  UNL     1       2.418  -2.816   1.545  1.00  0.00    -0.015 A   
ATOM     10  C2  UNL     1       1.232  -1.171   2.882  1.00  0.00     0.075 A   
ATOM     11  C3  UNL     1       0.649  -2.183   3.639  1.00  0.00     0.033 A   
ATOM     12  C24 UNL     1       2.102  -1.479   1.837  1.00  0.00     0.040 A   
ATOM     13  C4  UNL     1       0.963  -3.513   3.366  1.00  0.00     0.003 A   
ATOM     14  C5  UNL     1       1.839  -3.828   2.325  1.00  0.00     0.006 A   
BRANCH  10  15
ATOM     15  O1  UNL     1       0.902   0.145   3.072  1.00  0.00    -0.349 OA  
ATOM     16  C1  UNL     1       1.409   0.618   4.325  1.00  0.00     0.203 C   
ENDBRANCH  10  15
ENDBRANCH   8   9
BRANCH   8  17
ATOM     17  O2  UNL     1       4.113  -4.285   0.694  1.00  0.00    -0.387 OA  
ATOM     18  H8  UNL     1       5.040  -3.994   0.765  1.00  0.00     0.211 HD  
ENDBRANCH   8  17
ENDBRANCH   7   8
ENDBRANCH   1   7
BRANCH   3  19
ATOM     19  C11 UNL     1      -1.104  -0.081  -1.754  1.00  0.00     0.114 C   
BRANCH  19  20
ATOM     20  C12 UNL     1      -1.578   0.190  -3.194  1.00  0.00     0.064 C   
BRANCH  20  21
ATOM     21  C13 UNL     1      -1.946  -1.067  -4.011  1.00  0.00    -0.012 C   
ATOM     22  C14 UNL     1      -2.315  -0.660  -5.441  1.00  0.00     0.007 C   
ATOM     23  C15 UNL     1      -3.098  -1.853  -3.382  1.00  0.00     0.007 C   
ENDBRANCH  20  21
ENDBRANCH  19  20
BRANCH  19  24
ATOM     24  N2  UNL     1      -0.865   1.264  -1.108  1.00  0.00     0.249 N   
ATOM     25  H22 UNL     1      -0.008   1.650  -1.530  1.00  0.00     0.199 HD  
ATOM     26  H23 UNL     1      -1.619   1.923  -1.325  1.00  0.00     0.199 HD  
BRANCH  24  27
ATOM     27  C16 UNL     1      -0.650   1.228   0.367  1.00  0.00     0.164 C   
BRANCH  27  28
ATOM     28  C17 UNL     1      -0.399   2.611   0.897  1.00  0.00    -0.002 A   
ATOM     29  C18 UNL     1       0.916   3.129   0.932  1.00  0.00     0.012 A   
ATOM     30  C22 UNL     1      -1.472   3.418   1.309  1.00  0.00     0.045 A   
ATOM     31  C19 UNL     1       1.164   4.429   1.385  1.00  0.00     0.037 A   
ATOM     32  C21 UNL     1      -1.192   4.695   1.750  1.00  0.00     0.109 A   
ATOM     33  C20 UNL     1       0.088   5.186   1.787  1.00  0.00     0.108 A   
ATOM     34  O3  UNL     1      -2.108   5.601   2.180  1.00  0.00    -0.316 OA  
ATOM     35  O4  UNL     1       0.140   6.463   2.247  1.00  0.00    -0.316 OA  
ATOM     36  C23 UNL     1      -1.251   6.714   2.524  1.00  0.00     0.337 C   
ENDBRANCH  27  28
ENDBRANCH  24  27
ENDBRANCH  19  24
ENDBRANCH   3  19
TORSDOF 11
