REMARK SMILES CCc1ccsc1[C@@H](CO)n1cc([C@@H]([NH2+]Cc2ccc3c(c2)OCO3)C2CCCC2)nn1
REMARK SMILES IDX 11 1 12 2 13 3 31 4 32 5 8 7 7 8 3 9 4 10 5 11 6 12 2 13
REMARK SMILES IDX 1 14 9 15 10 16 14 18 15 19 16 22 17 23 18 24 22 25 19 26
REMARK SMILES IDX 21 27 20 28 23 29 25 30 24 31 26 32 27 33 30 34 28 35 29 36
REMARK H PARENT 12 6 10 17 15 20 15 21
ROOT
ATOM     1   N1  UNL     1      -0.082   1.547   1.332  1.00  0.00    -0.202 N   
ATOM     2   C9  UNL     1      -0.703   0.350   1.091  1.00  0.00     0.046 A   
ATOM     3   C10 UNL     1       0.296  -0.454   0.590  1.00  0.00     0.127 A   
ATOM     4   N3  UNL     1       1.465   0.256   0.536  1.00  0.00    -0.132 NA  
ATOM     5   N4  UNL     1       1.222   1.478   0.978  1.00  0.00    -0.075 NA  
ATOM     6   H12 UNL     1      -1.754   0.187   1.280  1.00  0.00     0.083 HD  
ENDROOT
BRANCH   1   7
ATOM     7   C7  UNL     1      -0.637   2.811   1.817  1.00  0.00     0.162 C   
BRANCH   7   8
ATOM     8   C6  UNL     1      -1.011   3.700   0.640  1.00  0.00     0.017 A   
ATOM     9   C3  UNL     1      -0.435   4.906   0.254  1.00  0.00    -0.036 A   
ATOM     10  C4  UNL     1      -1.080   5.438  -0.914  1.00  0.00     0.012 A   
ATOM     11  C5  UNL     1      -2.100   4.641  -1.374  1.00  0.00     0.046 A   
ATOM     12  S1  UNL     1      -2.298   3.248  -0.416  1.00  0.00    -0.100 S   
BRANCH   9  13
ATOM     13  C2  UNL     1       0.716   5.598   0.939  1.00  0.00     0.033 C   
ATOM     14  C1  UNL     1       0.267   6.415   2.144  1.00  0.00     0.009 C   
ENDBRANCH   9  13
ENDBRANCH   7   8
BRANCH   7  15
ATOM     15  C8  UNL     1      -1.802   2.649   2.813  1.00  0.00     0.186 C   
BRANCH  15  16
ATOM     16  O1  UNL     1      -1.374   1.961   3.990  1.00  0.00    -0.394 OA  
ATOM     17  H11 UNL     1      -2.082   2.051   4.656  1.00  0.00     0.210 HD  
ENDBRANCH  15  16
ENDBRANCH   7  15
ENDBRANCH   1   7
BRANCH   3  18
ATOM     18  C11 UNL     1       0.262  -1.855   0.076  1.00  0.00     0.117 C   
BRANCH  18  19
ATOM     19  N2  UNL     1       1.191  -1.997  -1.106  1.00  0.00     0.249 N   
ATOM     20  H14 UNL     1       1.330  -2.981  -1.347  1.00  0.00     0.199 HD  
ATOM     21  H15 UNL     1       2.100  -1.622  -0.802  1.00  0.00     0.199 HD  
BRANCH  19  22
ATOM     22  C12 UNL     1       0.813  -1.240  -2.340  1.00  0.00     0.164 C   
BRANCH  22  23
ATOM     23  C13 UNL     1      -0.484  -1.704  -2.941  1.00  0.00    -0.002 A   
ATOM     24  C14 UNL     1      -1.642  -0.895  -2.843  1.00  0.00     0.012 A   
ATOM     25  C18 UNL     1      -0.566  -2.953  -3.579  1.00  0.00     0.045 A   
ATOM     26  C15 UNL     1      -2.868  -1.329  -3.358  1.00  0.00     0.037 A   
ATOM     27  C17 UNL     1      -1.789  -3.349  -4.079  1.00  0.00     0.109 A   
ATOM     28  C16 UNL     1      -2.909  -2.562  -3.968  1.00  0.00     0.108 A   
ATOM     29  O2  UNL     1      -2.040  -4.523  -4.715  1.00  0.00    -0.316 OA  
ATOM     30  O3  UNL     1      -4.007  -3.142  -4.519  1.00  0.00    -0.316 OA  
ATOM     31  C19 UNL     1      -3.446  -4.374  -5.021  1.00  0.00     0.337 C   
ENDBRANCH  22  23
ENDBRANCH  19  22
ENDBRANCH  18  19
BRANCH  18  32
ATOM     32  C20 UNL     1       0.615  -2.873   1.179  1.00  0.00     0.043 C   
ATOM     33  C21 UNL     1       0.333  -4.333   0.812  1.00  0.00     0.010 C   
ATOM     34  C24 UNL     1       2.078  -2.927   1.623  1.00  0.00     0.010 C   
ATOM     35  C22 UNL     1       1.108  -5.148   1.847  1.00  0.00     0.001 C   
ATOM     36  C23 UNL     1       2.141  -4.201   2.458  1.00  0.00     0.001 C   
ENDBRANCH  18  32
ENDBRANCH   3  18
TORSDOF 10
