REMARK SMILES CCc1ccsc1[C@H](CO)n1cc([C@@H]([NH2+]Cc2ccc3c(c2)OCO3)C2CCCC2)nn1
REMARK SMILES IDX 11 1 12 2 13 3 31 4 32 5 8 7 7 8 3 9 4 10 5 11 6 12 2 13
REMARK SMILES IDX 1 14 9 15 10 16 14 18 15 19 16 22 17 23 18 24 22 25 19 26
REMARK SMILES IDX 21 27 20 28 23 29 25 30 24 31 26 32 27 33 30 34 28 35 29 36
REMARK H PARENT 12 6 10 17 15 20 15 21
ROOT
ATOM     1   N1  UNL     1      -0.227   2.378   0.571  1.00  0.00    -0.202 N   
ATOM     2   C9  UNL     1      -0.327   1.653  -0.589  1.00  0.00     0.046 A   
ATOM     3   C10 UNL     1      -1.272   0.693  -0.303  1.00  0.00     0.127 A   
ATOM     4   N3  UNL     1      -1.727   0.875   0.974  1.00  0.00    -0.132 NA  
ATOM     5   N4  UNL     1      -1.087   1.907   1.497  1.00  0.00    -0.075 NA  
ATOM     6   H12 UNL     1       0.297   1.853  -1.447  1.00  0.00     0.083 HD  
ENDROOT
BRANCH   1   7
ATOM     7   C7  UNL     1       0.727   3.448   0.870  1.00  0.00     0.162 C   
BRANCH   7   8
ATOM     8   C6  UNL     1       2.118   2.869   1.125  1.00  0.00     0.017 A   
ATOM     9   C3  UNL     1       3.338   3.308   0.617  1.00  0.00    -0.036 A   
ATOM     10  C4  UNL     1       4.420   2.490   1.084  1.00  0.00     0.012 A   
ATOM     11  C5  UNL     1       4.007   1.481   1.919  1.00  0.00     0.046 A   
ATOM     12  S1  UNL     1       2.326   1.514   2.173  1.00  0.00    -0.100 S   
BRANCH   9  13
ATOM     13  C2  UNL     1       3.547   4.490  -0.293  1.00  0.00     0.033 C   
ATOM     14  C1  UNL     1       3.431   4.126  -1.766  1.00  0.00     0.009 C   
ENDBRANCH   9  13
ENDBRANCH   7   8
BRANCH   7  15
ATOM     15  C8  UNL     1       0.267   4.381   2.005  1.00  0.00     0.186 C   
BRANCH  15  16
ATOM     16  O1  UNL     1       0.901   5.657   1.878  1.00  0.00    -0.394 OA  
ATOM     17  H11 UNL     1       0.639   6.188   2.652  1.00  0.00     0.210 HD  
ENDBRANCH  15  16
ENDBRANCH   7  15
ENDBRANCH   1   7
BRANCH   3  18
ATOM     18  C11 UNL     1      -1.738  -0.487  -1.089  1.00  0.00     0.117 C   
BRANCH  18  19
ATOM     19  N2  UNL     1      -1.561  -1.742  -0.269  1.00  0.00     0.249 N   
ATOM     20  H14 UNL     1      -1.992  -2.550  -0.728  1.00  0.00     0.199 HD  
ATOM     21  H15 UNL     1      -2.070  -1.603   0.616  1.00  0.00     0.199 HD  
BRANCH  19  22
ATOM     22  C12 UNL     1      -0.152  -2.089   0.070  1.00  0.00     0.164 C   
BRANCH  22  23
ATOM     23  C13 UNL     1      -0.087  -3.388   0.823  1.00  0.00    -0.002 A   
ATOM     24  C14 UNL     1      -0.224  -3.400   2.231  1.00  0.00     0.012 A   
ATOM     25  C18 UNL     1       0.069  -4.601   0.133  1.00  0.00     0.045 A   
ATOM     26  C15 UNL     1      -0.189  -4.600   2.947  1.00  0.00     0.037 A   
ATOM     27  C17 UNL     1       0.108  -5.766   0.870  1.00  0.00     0.109 A   
ATOM     28  C16 UNL     1      -0.013  -5.766   2.236  1.00  0.00     0.108 A   
ATOM     29  O2  UNL     1       0.267  -7.016   0.362  1.00  0.00    -0.316 OA  
ATOM     30  O3  UNL     1       0.054  -7.015   2.763  1.00  0.00    -0.316 OA  
ATOM     31  C19 UNL     1       0.277  -7.804   1.574  1.00  0.00     0.337 C   
ENDBRANCH  22  23
ENDBRANCH  19  22
ENDBRANCH  18  19
BRANCH  18  32
ATOM     32  C20 UNL     1      -3.219  -0.369  -1.490  1.00  0.00     0.043 C   
ATOM     33  C21 UNL     1      -3.738  -1.530  -2.346  1.00  0.00     0.010 C   
ATOM     34  C24 UNL     1      -3.507   0.836  -2.391  1.00  0.00     0.010 C   
ATOM     35  C22 UNL     1      -4.971  -0.979  -3.064  1.00  0.00     0.001 C   
ATOM     36  C23 UNL     1      -4.887   0.541  -2.964  1.00  0.00     0.001 C   
ENDBRANCH  18  32
ENDBRANCH   3  18
TORSDOF 10
