REMARK SMILES CN1CCc2cc(-n3cc([C@@H]([NH2+]Cc4ccc5c(c4)OCO5)C4CCCC4)nn3)ccc2C1
REMARK SMILES IDX 11 1 10 2 8 3 9 4 29 5 28 6 7 7 2 8 3 9 33 10 4 11 32 12
REMARK SMILES IDX 5 13 31 14 6 15 30 16 1 17 12 18 13 21 14 22 15 23 19 24
REMARK SMILES IDX 16 25 18 26 17 27 20 28 22 29 21 30 23 31 24 32 27 33 25 34
REMARK SMILES IDX 26 35
REMARK H PARENT 12 19 12 20
ROOT
ATOM     1   C9  UNL     1      -2.711  -1.018   0.405  1.00  0.00     0.117 C   
ENDROOT
BRANCH   1   2
ATOM     2   C8  UNL     1      -1.724  -0.159  -0.320  1.00  0.00     0.127 A   
ATOM     3   N2  UNL     1      -0.003   0.785  -1.292  1.00  0.00    -0.181 N   
ATOM     4   C7  UNL     1      -0.393  -0.354  -0.612  1.00  0.00     0.135 A   
ATOM     5   N5  UNL     1      -1.065   1.630  -1.366  1.00  0.00    -0.071 NA  
ATOM     6   N4  UNL     1      -2.112   1.062  -0.792  1.00  0.00    -0.131 NA  
BRANCH   3   7
ATOM     7   C6  UNL     1       1.263   1.114  -1.837  1.00  0.00     0.058 A   
ATOM     8   N1  UNL     1       6.003   1.042  -3.746  1.00  0.00    -0.302 NA  
ATOM     9   C2  UNL     1       6.105   0.266  -2.505  1.00  0.00     0.089 C   
ATOM     10  C26 UNL     1       5.094   2.184  -3.551  1.00  0.00     0.120 C   
ATOM     11  C3  UNL     1       4.756  -0.386  -2.171  1.00  0.00     0.051 C   
ATOM     12  C25 UNL     1       3.753   1.789  -2.963  1.00  0.00    -0.031 A   
ATOM     13  C4  UNL     1       3.597   0.578  -2.268  1.00  0.00    -0.040 A   
ATOM     14  C24 UNL     1       2.666   2.667  -3.062  1.00  0.00     0.007 A   
ATOM     15  C5  UNL     1       2.350   0.236  -1.720  1.00  0.00     0.030 A   
ATOM     16  C23 UNL     1       1.429   2.334  -2.506  1.00  0.00     0.026 A   
ATOM     17  C1  UNL     1       7.319   1.510  -4.180  1.00  0.00     0.105 C   
ENDBRANCH   3   7
ENDBRANCH   1   2
BRANCH   1  18
ATOM     18  N3  UNL     1      -3.768  -0.160   1.060  1.00  0.00     0.249 N   
ATOM     19  H11 UNL     1      -4.593  -0.714   1.304  1.00  0.00     0.199 HD  
ATOM     20  H12 UNL     1      -4.065   0.524   0.350  1.00  0.00     0.199 HD  
BRANCH  18  21
ATOM     21  C10 UNL     1      -3.337   0.620   2.259  1.00  0.00     0.164 C   
BRANCH  21  22
ATOM     22  C11 UNL     1      -2.986  -0.255   3.431  1.00  0.00    -0.002 A   
ATOM     23  C12 UNL     1      -1.642  -0.358   3.864  1.00  0.00     0.012 A   
ATOM     24  C16 UNL     1      -3.983  -0.996   4.088  1.00  0.00     0.045 A   
ATOM     25  C13 UNL     1      -1.292  -1.195   4.929  1.00  0.00     0.037 A   
ATOM     26  C15 UNL     1      -3.603  -1.812   5.133  1.00  0.00     0.109 A   
ATOM     27  C14 UNL     1      -2.296  -1.911   5.541  1.00  0.00     0.108 A   
ATOM     28  O1  UNL     1      -4.436  -2.597   5.865  1.00  0.00    -0.316 OA  
ATOM     29  O2  UNL     1      -2.141  -2.769   6.582  1.00  0.00    -0.316 OA  
ATOM     30  C17 UNL     1      -3.507  -3.180   6.808  1.00  0.00     0.337 C   
ENDBRANCH  21  22
ENDBRANCH  18  21
ENDBRANCH   1  18
BRANCH   1  31
ATOM     31  C18 UNL     1      -3.357  -2.053  -0.538  1.00  0.00     0.043 C   
ATOM     32  C19 UNL     1      -4.354  -1.512  -1.566  1.00  0.00     0.010 C   
ATOM     33  C22 UNL     1      -4.167  -3.145   0.170  1.00  0.00     0.010 C   
ATOM     34  C20 UNL     1      -5.011  -2.778  -2.100  1.00  0.00     0.001 C   
ATOM     35  C21 UNL     1      -5.075  -3.734  -0.911  1.00  0.00     0.001 C   
ENDBRANCH   1  31
TORSDOF 6
