REMARK SMILES Cc1[nH]ncc1Cn1cc([C@H](CC(C)C)[NH2+]Cc2ccc3c(c2)OCO3)nn1
REMARK SMILES IDX 8 1 9 2 10 3 27 4 28 5 7 7 6 8 2 9 3 10 4 11 5 12 1 13 11 15
REMARK SMILES IDX 12 16 13 17 14 18 15 19 16 20 17 23 18 24 19 25 23 26 20 27
REMARK SMILES IDX 22 28 21 29 24 30 26 31 25 32
REMARK H PARENT 9 6 3 14 16 21 16 22
ROOT
ATOM     1   N3  UNL     1      -0.172   0.023   2.236  1.00  0.00    -0.208 N   
ATOM     2   C6  UNL     1       0.693  -0.072   1.180  1.00  0.00     0.046 A   
ATOM     3   C7  UNL     1       0.135   0.742   0.220  1.00  0.00     0.127 A   
ATOM     4   N5  UNL     1      -0.989   1.337   0.729  1.00  0.00    -0.132 NA  
ATOM     5   N6  UNL     1      -1.171   0.885   1.960  1.00  0.00    -0.076 NA  
ATOM     6   H8  UNL     1       1.551  -0.730   1.188  1.00  0.00     0.083 HD  
ENDROOT
BRANCH   1   7
ATOM     7   C5  UNL     1      -0.162  -0.747   3.470  1.00  0.00     0.172 C   
BRANCH   7   8
ATOM     8   C4  UNL     1      -0.683  -2.118   3.205  1.00  0.00     0.010 A   
ATOM     9   C2  UNL     1      -1.977  -2.597   3.329  1.00  0.00     0.028 A   
ATOM     10  N1  UNL     1      -1.932  -3.911   2.946  1.00  0.00    -0.243 N   
ATOM     11  N2  UNL     1      -0.716  -4.300   2.532  1.00  0.00    -0.192 NA  
ATOM     12  C3  UNL     1       0.052  -3.234   2.742  1.00  0.00     0.138 A   
ATOM     13  C1  UNL     1      -3.236  -1.948   3.767  1.00  0.00     0.063 C   
ATOM     14  H4  UNL     1      -2.688  -4.590   2.928  1.00  0.00     0.175 HD  
ENDBRANCH   7   8
ENDBRANCH   1   7
BRANCH   3  15
ATOM     15  C8  UNL     1       0.508   0.951  -1.208  1.00  0.00     0.114 C   
BRANCH  15  16
ATOM     16  C9  UNL     1       1.181   2.315  -1.455  1.00  0.00     0.064 C   
BRANCH  16  17
ATOM     17  C10 UNL     1       2.526   2.523  -0.727  1.00  0.00    -0.012 C   
ATOM     18  C11 UNL     1       3.044   3.939  -0.998  1.00  0.00     0.007 C   
ATOM     19  C12 UNL     1       3.582   1.500  -1.148  1.00  0.00     0.007 C   
ENDBRANCH  16  17
ENDBRANCH  15  16
BRANCH  15  20
ATOM     20  N4  UNL     1      -0.721   0.901  -2.099  1.00  0.00     0.249 N   
ATOM     21  H19 UNL     1      -0.448   1.083  -3.068  1.00  0.00     0.199 HD  
ATOM     22  H20 UNL     1      -1.331   1.674  -1.801  1.00  0.00     0.199 HD  
BRANCH  20  23
ATOM     23  C13 UNL     1      -1.547  -0.346  -2.044  1.00  0.00     0.164 C   
BRANCH  23  24
ATOM     24  C14 UNL     1      -0.771  -1.609  -2.296  1.00  0.00    -0.002 A   
ATOM     25  C15 UNL     1      -0.621  -2.564  -1.260  1.00  0.00     0.012 A   
ATOM     26  C19 UNL     1      -0.176  -1.847  -3.546  1.00  0.00     0.045 A   
ATOM     27  C16 UNL     1       0.123  -3.732  -1.458  1.00  0.00     0.037 A   
ATOM     28  C18 UNL     1       0.551  -3.009  -3.707  1.00  0.00     0.109 A   
ATOM     29  C17 UNL     1       0.699  -3.924  -2.693  1.00  0.00     0.108 A   
ATOM     30  O1  UNL     1       1.196  -3.384  -4.843  1.00  0.00    -0.316 OA  
ATOM     31  O2  UNL     1       1.454  -4.990  -3.063  1.00  0.00    -0.316 OA  
ATOM     32  C20 UNL     1       1.737  -4.664  -4.441  1.00  0.00     0.337 C   
ENDBRANCH  23  24
ENDBRANCH  20  23
ENDBRANCH  15  20
ENDBRANCH   3  15
TORSDOF 8
