REMARK SMILES CC(C)C[C@H]([NH2+]Cc1ccc2c(c1)OCO2)c1cn(C(=O)c2ccc(O)cc2)nn1
REMARK SMILES IDX 17 1 18 2 19 3 29 4 30 5 5 6 4 7 2 8 1 9 3 10 6 11 7 14 8 15
REMARK SMILES IDX 9 16 13 17 10 18 12 19 11 20 14 21 16 22 15 23 20 24 21 25
REMARK SMILES IDX 22 26 23 27 28 28 24 29 27 30 25 31 26 32
REMARK H PARENT 6 12 6 13 26 33
ROOT
ATOM     1   C14 UNL     1      -1.565   0.231  -0.616  1.00  0.00     0.127 A   
ATOM     2   C15 UNL     1      -1.501  -1.078  -1.036  1.00  0.00     0.139 A   
ATOM     3   N2  UNL     1      -0.321  -1.167  -1.750  1.00  0.00    -0.143 N   
ATOM     4   N3  UNL     1       0.284   0.051  -1.761  1.00  0.00    -0.068 NA  
ATOM     5   N4  UNL     1      -0.463   0.899  -1.071  1.00  0.00    -0.131 NA  
ENDROOT
BRANCH   1   6
ATOM     6   C5  UNL     1      -2.550   0.936   0.261  1.00  0.00     0.114 C   
BRANCH   6   7
ATOM     7   C4  UNL     1      -3.589   1.707  -0.577  1.00  0.00     0.064 C   
BRANCH   7   8
ATOM     8   C2  UNL     1      -4.772   2.297   0.221  1.00  0.00    -0.012 C   
ATOM     9   C1  UNL     1      -5.648   1.210   0.848  1.00  0.00     0.007 C   
ATOM     10  C3  UNL     1      -5.627   3.175  -0.695  1.00  0.00     0.007 C   
ENDBRANCH   7   8
ENDBRANCH   6   7
BRANCH   6  11
ATOM     11  N1  UNL     1      -1.814   1.911   1.155  1.00  0.00     0.249 N   
ATOM     12  H11 UNL     1      -2.309   2.801   1.222  1.00  0.00     0.199 HD  
ATOM     13  H12 UNL     1      -0.930   2.130   0.667  1.00  0.00     0.199 HD  
BRANCH  11  14
ATOM     14  C6  UNL     1      -1.481   1.431   2.528  1.00  0.00     0.164 C   
BRANCH  14  15
ATOM     15  C7  UNL     1      -0.614   0.205   2.546  1.00  0.00    -0.002 A   
ATOM     16  C8  UNL     1       0.761   0.292   2.223  1.00  0.00     0.012 A   
ATOM     17  C12 UNL     1      -1.176  -1.051   2.833  1.00  0.00     0.045 A   
ATOM     18  C9  UNL     1       1.562  -0.854   2.169  1.00  0.00     0.037 A   
ATOM     19  C11 UNL     1      -0.359  -2.160   2.765  1.00  0.00     0.109 A   
ATOM     20  C10 UNL     1       0.971  -2.065   2.439  1.00  0.00     0.108 A   
ATOM     21  O1  UNL     1      -0.750  -3.442   2.987  1.00  0.00    -0.316 OA  
ATOM     22  O2  UNL     1       1.589  -3.276   2.418  1.00  0.00    -0.316 OA  
ATOM     23  C13 UNL     1       0.504  -4.144   2.813  1.00  0.00     0.337 C   
ENDBRANCH  14  15
ENDBRANCH  11  14
ENDBRANCH   6  11
ENDBRANCH   1   6
BRANCH   3  24
ATOM     24  C16 UNL     1       0.246  -2.295  -2.357  1.00  0.00     0.271 C   
ATOM     25  O3  UNL     1      -0.338  -3.360  -2.170  1.00  0.00    -0.269 OA  
BRANCH  24  26
ATOM     26  C17 UNL     1       1.472  -2.291  -3.192  1.00  0.00     0.040 A   
ATOM     27  C18 UNL     1       2.353  -3.376  -3.088  1.00  0.00     0.016 A   
ATOM     28  C22 UNL     1       1.732  -1.268  -4.116  1.00  0.00     0.016 A   
ATOM     29  C19 UNL     1       3.495  -3.425  -3.887  1.00  0.00     0.034 A   
ATOM     30  C21 UNL     1       2.872  -1.326  -4.922  1.00  0.00     0.034 A   
ATOM     31  C20 UNL     1       3.743  -2.404  -4.798  1.00  0.00     0.071 A   
BRANCH  31  32
ATOM     32  O4  UNL     1       4.863  -2.500  -5.567  1.00  0.00    -0.361 OA  
ATOM     33  H23 UNL     1       4.827  -1.830  -6.270  1.00  0.00     0.218 HD  
ENDBRANCH  31  32
ENDBRANCH  24  26
ENDBRANCH   3  24
TORSDOF 9
