REMARK SMILES CC(C)C[C@H]([NH2+]Cc1ccc2c(c1)OCO2)c1cn(Cc2cccc3[nH]ccc23)nn1
REMARK SMILES IDX 17 1 18 2 19 3 30 4 31 5 5 7 4 8 2 9 1 10 3 11 6 12 7 15
REMARK SMILES IDX 8 16 9 17 13 18 10 19 12 20 11 21 14 22 16 23 15 24 20 25
REMARK SMILES IDX 21 26 22 27 29 28 23 29 25 30 28 31 24 32 26 33 27 34
REMARK H PARENT 18 6 6 13 6 14 26 35
ROOT
ATOM     1   C14 UNL     1       1.109   0.209  -0.107  1.00  0.00     0.127 A   
ATOM     2   C15 UNL     1       2.151  -0.595  -0.510  1.00  0.00     0.046 A   
ATOM     3   N2  UNL     1       2.798   0.156  -1.456  1.00  0.00    -0.208 N   
ATOM     4   N4  UNL     1       2.273   1.397  -1.519  1.00  0.00    -0.076 NA  
ATOM     5   N5  UNL     1       1.222   1.432  -0.717  1.00  0.00    -0.132 NA  
ATOM     6   H20 UNL     1       2.436  -1.614  -0.289  1.00  0.00     0.083 HD  
ENDROOT
BRANCH   1   7
ATOM     7   C5  UNL     1      -0.026  -0.044   0.824  1.00  0.00     0.114 C   
BRANCH   7   8
ATOM     8   C4  UNL     1      -1.286  -0.544   0.088  1.00  0.00     0.064 C   
BRANCH   8   9
ATOM     9   C2  UNL     1      -1.137  -1.897  -0.643  1.00  0.00    -0.012 C   
ATOM     10  C1  UNL     1      -2.430  -2.222  -1.397  1.00  0.00     0.007 C   
ATOM     11  C3  UNL     1      -0.794  -3.039   0.313  1.00  0.00     0.007 C   
ENDBRANCH   8   9
ENDBRANCH   7   8
BRANCH   7  12
ATOM     12  N1  UNL     1      -0.411   1.240   1.521  1.00  0.00     0.249 N   
ATOM     13  H11 UNL     1      -0.464   1.965   0.790  1.00  0.00     0.199 HD  
ATOM     14  H12 UNL     1      -1.348   1.177   1.933  1.00  0.00     0.199 HD  
BRANCH  12  15
ATOM     15  C6  UNL     1       0.547   1.720   2.554  1.00  0.00     0.164 C   
BRANCH  15  16
ATOM     16  C7  UNL     1       0.085   3.031   3.125  1.00  0.00    -0.002 A   
ATOM     17  C8  UNL     1      -0.706   3.065   4.298  1.00  0.00     0.012 A   
ATOM     18  C12 UNL     1       0.392   4.232   2.460  1.00  0.00     0.045 A   
ATOM     19  C9  UNL     1      -1.178   4.279   4.810  1.00  0.00     0.037 A   
ATOM     20  C11 UNL     1      -0.090   5.410   2.991  1.00  0.00     0.109 A   
ATOM     21  C10 UNL     1      -0.853   5.434   4.132  1.00  0.00     0.108 A   
ATOM     22  O1  UNL     1       0.112   6.651   2.476  1.00  0.00    -0.316 OA  
ATOM     23  O2  UNL     1      -1.226   6.693   4.480  1.00  0.00    -0.316 OA  
ATOM     24  C13 UNL     1      -0.596   7.466   3.437  1.00  0.00     0.337 C   
ENDBRANCH  15  16
ENDBRANCH  12  15
ENDBRANCH   7  12
ENDBRANCH   1   7
BRANCH   3  25
ATOM     25  C16 UNL     1       3.880  -0.239  -2.347  1.00  0.00     0.170 C   
BRANCH  25  26
ATOM     26  C17 UNL     1       3.592  -1.562  -3.019  1.00  0.00    -0.019 A   
ATOM     27  C18 UNL     1       4.479  -2.644  -2.827  1.00  0.00     0.006 A   
ATOM     28  C24 UNL     1       2.462  -1.777  -3.852  1.00  0.00     0.002 A   
ATOM     29  C19 UNL     1       4.252  -3.888  -3.414  1.00  0.00     0.002 A   
ATOM     30  C21 UNL     1       2.262  -3.036  -4.422  1.00  0.00     0.037 A   
ATOM     31  C23 UNL     1       1.381  -0.955  -4.289  1.00  0.00     0.025 A   
ATOM     32  C20 UNL     1       3.135  -4.108  -4.221  1.00  0.00     0.024 A   
ATOM     33  N3  UNL     1       1.109  -2.970  -5.173  1.00  0.00    -0.321 N   
ATOM     34  C22 UNL     1       0.563  -1.717  -5.090  1.00  0.00     0.072 A   
ATOM     35  H26 UNL     1       0.735  -3.736  -5.718  1.00  0.00     0.152 HD  
ENDBRANCH  25  26
ENDBRANCH   3  25
TORSDOF 8
