REMARK SMILES CC(C)C[C@H]([NH2+]Cc1ccc2c(c1)OCO2)c1cn(Cc2ccccc2O)nn1
REMARK SMILES IDX 17 1 18 2 19 3 28 4 29 5 5 7 4 8 2 9 1 10 3 11 6 12 7 15
REMARK SMILES IDX 8 16 9 17 13 18 10 19 12 20 11 21 14 22 16 23 15 24 20 25
REMARK SMILES IDX 21 26 22 27 26 28 23 29 25 30 24 31 27 32
REMARK H PARENT 18 6 6 13 6 14 27 33
ROOT
ATOM     1   C14 UNL     1       1.830   1.115   1.043  1.00  0.00     0.127 A   
ATOM     2   C15 UNL     1       1.405  -0.105   1.515  1.00  0.00     0.046 A   
ATOM     3   N2  UNL     1       1.106   0.136   2.828  1.00  0.00    -0.208 N   
ATOM     4   N3  UNL     1       1.409   1.408   3.162  1.00  0.00    -0.076 NA  
ATOM     5   N4  UNL     1       1.856   2.017   2.075  1.00  0.00    -0.132 NA  
ATOM     6   H20 UNL     1       1.210  -1.060   1.046  1.00  0.00     0.083 HD  
ENDROOT
BRANCH   1   7
ATOM     7   C5  UNL     1       2.104   1.572  -0.347  1.00  0.00     0.114 C   
BRANCH   7   8
ATOM     8   C4  UNL     1       3.603   1.796  -0.619  1.00  0.00     0.064 C   
BRANCH   8   9
ATOM     9   C2  UNL     1       4.482   0.532  -0.507  1.00  0.00    -0.012 C   
ATOM     10  C1  UNL     1       5.953   0.906  -0.707  1.00  0.00     0.007 C   
ATOM     11  C3  UNL     1       4.083  -0.545  -1.518  1.00  0.00     0.007 C   
ENDBRANCH   8   9
ENDBRANCH   7   8
BRANCH   7  12
ATOM     12  N1  UNL     1       1.405   2.896  -0.607  1.00  0.00     0.249 N   
ATOM     13  H11 UNL     1       1.780   3.558   0.085  1.00  0.00     0.199 HD  
ATOM     14  H12 UNL     1       1.656   3.243  -1.537  1.00  0.00     0.199 HD  
BRANCH  12  15
ATOM     15  C6  UNL     1      -0.085   2.909  -0.455  1.00  0.00     0.164 C   
BRANCH  15  16
ATOM     16  C7  UNL     1      -0.797   1.948  -1.367  1.00  0.00    -0.002 A   
ATOM     17  C8  UNL     1      -0.893   2.213  -2.753  1.00  0.00     0.012 A   
ATOM     18  C12 UNL     1      -1.355   0.766  -0.846  1.00  0.00     0.045 A   
ATOM     19  C9  UNL     1      -1.529   1.309  -3.611  1.00  0.00     0.037 A   
ATOM     20  C11 UNL     1      -1.965  -0.108  -1.720  1.00  0.00     0.109 A   
ATOM     21  C10 UNL     1      -2.050   0.157  -3.064  1.00  0.00     0.108 A   
ATOM     22  O1  UNL     1      -2.539  -1.294  -1.387  1.00  0.00    -0.316 OA  
ATOM     23  O2  UNL     1      -2.697  -0.822  -3.747  1.00  0.00    -0.316 OA  
ATOM     24  C13 UNL     1      -3.030  -1.730  -2.677  1.00  0.00     0.337 C   
ENDBRANCH  15  16
ENDBRANCH  12  15
ENDBRANCH   7  12
ENDBRANCH   1   7
BRANCH   3  25
ATOM     25  C16 UNL     1       0.431  -0.743   3.768  1.00  0.00     0.172 C   
BRANCH  25  26
ATOM     26  C17 UNL     1      -1.063  -0.671   3.566  1.00  0.00     0.001 A   
ATOM     27  C18 UNL     1      -1.826   0.261   4.287  1.00  0.00     0.008 A   
ATOM     28  C22 UNL     1      -1.717  -1.486   2.632  1.00  0.00     0.076 A   
ATOM     29  C19 UNL     1      -3.206   0.360   4.086  1.00  0.00     0.001 A   
ATOM     30  C21 UNL     1      -3.094  -1.391   2.427  1.00  0.00     0.033 A   
ATOM     31  C20 UNL     1      -3.838  -0.466   3.158  1.00  0.00     0.003 A   
BRANCH  28  32
ATOM     32  O3  UNL     1      -0.978  -2.373   1.901  1.00  0.00    -0.361 OA  
ATOM     33  H27 UNL     1      -1.591  -2.949   1.405  1.00  0.00     0.218 HD  
ENDBRANCH  28  32
ENDBRANCH  25  26
ENDBRANCH   3  25
TORSDOF 9
