REMARK SMILES CC(C)C[C@H]([NH2+]Cc1ccc2c(c1)OCO2)c1cn(CCc2cccnc2N(C)C)nn1
REMARK SMILES IDX 17 1 18 2 19 3 31 4 32 5 5 7 4 8 2 9 1 10 3 11 6 12 7 15
REMARK SMILES IDX 8 16 9 17 13 18 10 19 12 20 11 21 14 22 16 23 15 24 20 25
REMARK SMILES IDX 21 26 22 27 23 28 27 29 24 30 26 31 25 32 28 33 29 34 30 35
REMARK H PARENT 18 6 6 13 6 14
ROOT
ATOM     1   C14 UNL     1       0.390   1.676  -1.284  1.00  0.00     0.127 A   
ATOM     2   C15 UNL     1       1.732   1.715  -0.981  1.00  0.00     0.045 A   
ATOM     3   N2  UNL     1       1.794   2.573   0.082  1.00  0.00    -0.212 N   
ATOM     4   N5  UNL     1       0.591   3.127   0.325  1.00  0.00    -0.076 NA  
ATOM     5   N6  UNL     1      -0.281   2.581  -0.504  1.00  0.00    -0.132 NA  
ATOM     6   H20 UNL     1       2.582   1.136  -1.310  1.00  0.00     0.083 HD  
ENDROOT
BRANCH   1   7
ATOM     7   C5  UNL     1      -0.387   0.733  -2.143  1.00  0.00     0.114 C   
BRANCH   7   8
ATOM     8   C4  UNL     1      -0.842   1.398  -3.454  1.00  0.00     0.064 C   
BRANCH   8   9
ATOM     9   C2  UNL     1      -0.899   0.446  -4.670  1.00  0.00    -0.012 C   
ATOM     10  C1  UNL     1      -1.244   1.241  -5.934  1.00  0.00     0.007 C   
ATOM     11  C3  UNL     1      -1.890  -0.704  -4.501  1.00  0.00     0.007 C   
ENDBRANCH   8   9
ENDBRANCH   7   8
BRANCH   7  12
ATOM     12  N1  UNL     1      -1.605   0.275  -1.375  1.00  0.00     0.249 N   
ATOM     13  H11 UNL     1      -2.057   1.131  -1.020  1.00  0.00     0.199 HD  
ATOM     14  H12 UNL     1      -2.296  -0.191  -1.968  1.00  0.00     0.199 HD  
BRANCH  12  15
ATOM     15  C6  UNL     1      -1.306  -0.582  -0.188  1.00  0.00     0.164 C   
BRANCH  15  16
ATOM     16  C7  UNL     1      -2.551  -0.856   0.609  1.00  0.00    -0.002 A   
ATOM     17  C8  UNL     1      -3.122   0.167   1.405  1.00  0.00     0.012 A   
ATOM     18  C12 UNL     1      -3.160  -2.122   0.567  1.00  0.00     0.045 A   
ATOM     19  C9  UNL     1      -4.288  -0.064   2.144  1.00  0.00     0.037 A   
ATOM     20  C11 UNL     1      -4.307  -2.317   1.309  1.00  0.00     0.109 A   
ATOM     21  C10 UNL     1      -4.855  -1.318   2.076  1.00  0.00     0.108 A   
ATOM     22  O1  UNL     1      -5.019  -3.473   1.375  1.00  0.00    -0.316 OA  
ATOM     23  O2  UNL     1      -5.978  -1.720   2.726  1.00  0.00    -0.316 OA  
ATOM     24  C13 UNL     1      -6.074  -3.093   2.287  1.00  0.00     0.337 C   
ENDBRANCH  15  16
ENDBRANCH  12  15
ENDBRANCH   7  12
ENDBRANCH   1   7
BRANCH   3  25
ATOM     25  C16 UNL     1       2.891   2.786   1.004  1.00  0.00     0.139 C   
BRANCH  25  26
ATOM     26  C17 UNL     1       3.497   1.490   1.564  1.00  0.00     0.060 C   
BRANCH  26  27
ATOM     27  C18 UNL     1       2.475   0.516   2.125  1.00  0.00    -0.006 A   
ATOM     28  C19 UNL     1       1.692   0.911   3.221  1.00  0.00     0.009 A   
ATOM     29  C22 UNL     1       2.229  -0.748   1.548  1.00  0.00     0.123 A   
ATOM     30  C20 UNL     1       0.678   0.085   3.683  1.00  0.00     0.021 A   
ATOM     31  N3  UNL     1       1.185  -1.511   1.950  1.00  0.00    -0.241 NA  
ATOM     32  C21 UNL     1       0.461  -1.103   3.017  1.00  0.00     0.113 A   
BRANCH  29  33
ATOM     33  N4  UNL     1       3.076  -1.241   0.522  1.00  0.00    -0.322 N   
ATOM     34  C23 UNL     1       4.330  -1.722   1.136  1.00  0.00     0.131 C   
ATOM     35  C24 UNL     1       2.443  -2.297  -0.277  1.00  0.00     0.131 C   
ENDBRANCH  29  33
ENDBRANCH  26  27
ENDBRANCH  25  26
ENDBRANCH   3  25
TORSDOF 10
