REMARK SMILES CCc1c(C)[nH]c(C(=O)n2cc([C@H](CC(C)C)[NH2+]Cc3ccc4c(c3)OCO4)nn2)c1C
REMARK SMILES IDX 10 1 11 2 12 3 29 4 30 5 8 6 9 7 7 8 3 9 4 10 31 11 6 12
REMARK SMILES IDX 5 13 32 14 2 16 1 17 13 18 14 19 15 20 16 21 17 22 18 23
REMARK SMILES IDX 19 26 20 27 21 28 25 29 22 30 24 31 23 32 26 33 28 34 27 35
REMARK H PARENT 6 15 18 24 18 25
ROOT
ATOM     1   N2  UNL     1      -0.104  -1.128  -0.187  1.00  0.00    -0.142 N   
ATOM     2   C8  UNL     1       0.152  -0.415   0.974  1.00  0.00     0.139 A   
ATOM     3   C9  UNL     1       0.495   0.848   0.555  1.00  0.00     0.127 A   
ATOM     4   N4  UNL     1       0.467   0.886  -0.814  1.00  0.00    -0.131 NA  
ATOM     5   N5  UNL     1       0.109  -0.310  -1.257  1.00  0.00    -0.068 NA  
ENDROOT
BRANCH   1   6
ATOM     6   C7  UNL     1      -0.508  -2.476  -0.324  1.00  0.00     0.285 C   
ATOM     7   O1  UNL     1      -0.626  -3.076   0.744  1.00  0.00    -0.268 OA  
BRANCH   6   8
ATOM     8   C6  UNL     1      -0.764  -3.105  -1.618  1.00  0.00     0.099 A   
ATOM     9   C3  UNL     1      -1.284  -4.558  -3.303  1.00  0.00    -0.026 A   
ATOM     10  C4  UNL     1      -0.978  -3.329  -3.859  1.00  0.00     0.007 A   
ATOM     11  C23 UNL     1      -1.141  -4.422  -1.881  1.00  0.00    -0.020 A   
ATOM     12  N1  UNL     1      -0.674  -2.471  -2.838  1.00  0.00    -0.314 N   
ATOM     13  C5  UNL     1      -0.953  -2.887  -5.279  1.00  0.00     0.062 C   
ATOM     14  C24 UNL     1      -1.358  -5.493  -0.863  1.00  0.00     0.047 C   
ATOM     15  H9  UNL     1      -0.417  -1.498  -2.962  1.00  0.00     0.153 HD  
BRANCH   9  16
ATOM     16  C2  UNL     1      -1.688  -5.791  -4.057  1.00  0.00     0.034 C   
ATOM     17  C1  UNL     1      -0.505  -6.699  -4.358  1.00  0.00     0.009 C   
ENDBRANCH   9  16
ENDBRANCH   6   8
ENDBRANCH   1   6
BRANCH   3  18
ATOM     18  C10 UNL     1       0.869   2.070   1.329  1.00  0.00     0.114 C   
BRANCH  18  19
ATOM     19  C11 UNL     1      -0.341   2.775   1.976  1.00  0.00     0.064 C   
BRANCH  19  20
ATOM     20  C12 UNL     1      -1.557   3.126   1.087  1.00  0.00    -0.012 C   
ATOM     21  C13 UNL     1      -1.268   4.197   0.037  1.00  0.00     0.007 C   
ATOM     22  C14 UNL     1      -2.709   3.602   1.981  1.00  0.00     0.007 C   
ENDBRANCH  19  20
ENDBRANCH  18  19
BRANCH  18  23
ATOM     23  N3  UNL     1       1.639   3.043   0.477  1.00  0.00     0.249 N   
ATOM     24  H21 UNL     1       1.517   4.001   0.821  1.00  0.00     0.199 HD  
ATOM     25  H22 UNL     1       1.226   3.005  -0.464  1.00  0.00     0.199 HD  
BRANCH  23  26
ATOM     26  C15 UNL     1       3.098   2.764   0.319  1.00  0.00     0.164 C   
BRANCH  26  27
ATOM     27  C16 UNL     1       3.884   3.078   1.562  1.00  0.00    -0.002 A   
ATOM     28  C17 UNL     1       4.444   2.035   2.338  1.00  0.00     0.012 A   
ATOM     29  C21 UNL     1       4.052   4.411   1.974  1.00  0.00     0.045 A   
ATOM     30  C18 UNL     1       5.150   2.312   3.514  1.00  0.00     0.037 A   
ATOM     31  C20 UNL     1       4.753   4.649   3.138  1.00  0.00     0.109 A   
ATOM     32  C19 UNL     1       5.285   3.630   3.888  1.00  0.00     0.108 A   
ATOM     33  O2  UNL     1       4.998   5.873   3.676  1.00  0.00    -0.316 OA  
ATOM     34  O3  UNL     1       5.932   4.083   4.993  1.00  0.00    -0.316 OA  
ATOM     35  C22 UNL     1       5.780   5.510   4.838  1.00  0.00     0.337 C   
ENDBRANCH  26  27
ENDBRANCH  23  26
ENDBRANCH  18  23
ENDBRANCH   3  18
TORSDOF 9
