REMARK SMILES COc1ccccc1C(=O)Cn1cc([C@H](CC(C)C)[NH2+]Cc2ccc3c(c2)OCO3)nn1
REMARK SMILES IDX 12 1 13 2 14 3 31 4 32 5 11 7 9 8 10 9 8 10 3 11 4 12 5 13
REMARK SMILES IDX 7 14 6 15 2 16 1 17 15 18 16 19 17 20 18 21 19 22 20 23
REMARK SMILES IDX 21 26 22 27 23 28 27 29 24 30 26 31 25 32 28 33 30 34 29 35
REMARK H PARENT 13 6 20 24 20 25
ROOT
ATOM     1   N1  UNL     1      -1.665  -0.107  -0.390  1.00  0.00    -0.204 N   
ATOM     2   C10 UNL     1      -0.604  -0.951  -0.229  1.00  0.00     0.046 A   
ATOM     3   C11 UNL     1      -0.952  -1.701   0.874  1.00  0.00     0.127 A   
ATOM     4   N3  UNL     1      -2.216  -1.362   1.276  1.00  0.00    -0.132 NA  
ATOM     5   N4  UNL     1      -2.653  -0.401   0.476  1.00  0.00    -0.076 NA  
ATOM     6   H10 UNL     1       0.300  -0.867  -0.816  1.00  0.00     0.083 HD  
ENDROOT
BRANCH   1   7
ATOM     7   C9  UNL     1      -1.722   1.101  -1.189  1.00  0.00     0.215 C   
BRANCH   7   8
ATOM     8   C8  UNL     1      -1.357   2.291  -0.322  1.00  0.00     0.184 C   
ATOM     9   O2  UNL     1      -0.554   2.214   0.609  1.00  0.00    -0.292 OA  
BRANCH   8  10
ATOM     10  C7  UNL     1      -2.014   3.592  -0.609  1.00  0.00     0.050 A   
ATOM     11  C2  UNL     1      -2.183   4.077  -1.917  1.00  0.00     0.085 A   
ATOM     12  C3  UNL     1      -2.825   5.307  -2.103  1.00  0.00     0.034 A   
ATOM     13  C4  UNL     1      -3.272   6.045  -1.006  1.00  0.00     0.003 A   
ATOM     14  C6  UNL     1      -2.444   4.347   0.487  1.00  0.00     0.014 A   
ATOM     15  C5  UNL     1      -3.079   5.570   0.287  1.00  0.00     0.001 A   
BRANCH  11  16
ATOM     16  O1  UNL     1      -1.705   3.303  -2.938  1.00  0.00    -0.349 OA  
ATOM     17  C1  UNL     1      -1.489   3.956  -4.183  1.00  0.00     0.203 C   
ENDBRANCH  11  16
ENDBRANCH   8  10
ENDBRANCH   7   8
ENDBRANCH   1   7
BRANCH   3  18
ATOM     18  C12 UNL     1      -0.135  -2.625   1.706  1.00  0.00     0.114 C   
BRANCH  18  19
ATOM     19  C13 UNL     1      -0.748  -4.031   1.838  1.00  0.00     0.064 C   
BRANCH  19  20
ATOM     20  C14 UNL     1      -0.932  -4.791   0.508  1.00  0.00    -0.012 C   
ATOM     21  C15 UNL     1      -1.593  -6.146   0.775  1.00  0.00     0.007 C   
ATOM     22  C16 UNL     1       0.387  -5.000  -0.235  1.00  0.00     0.007 C   
ENDBRANCH  19  20
ENDBRANCH  18  19
BRANCH  18  23
ATOM     23  N2  UNL     1      -0.015  -2.064   3.112  1.00  0.00     0.249 N   
ATOM     24  H21 UNL     1       0.409  -2.764   3.727  1.00  0.00     0.199 HD  
ATOM     25  H22 UNL     1      -0.977  -1.908   3.441  1.00  0.00     0.199 HD  
BRANCH  23  26
ATOM     26  C17 UNL     1       0.716  -0.764   3.255  1.00  0.00     0.164 C   
BRANCH  26  27
ATOM     27  C18 UNL     1       2.139  -0.833   2.778  1.00  0.00    -0.002 A   
ATOM     28  C19 UNL     1       3.088  -1.647   3.449  1.00  0.00     0.012 A   
ATOM     29  C23 UNL     1       2.530  -0.116   1.632  1.00  0.00     0.045 A   
ATOM     30  C20 UNL     1       4.395  -1.774   2.965  1.00  0.00     0.037 A   
ATOM     31  C22 UNL     1       3.825  -0.261   1.182  1.00  0.00     0.109 A   
ATOM     32  C21 UNL     1       4.731  -1.068   1.826  1.00  0.00     0.108 A   
ATOM     33  O3  UNL     1       4.351   0.335   0.078  1.00  0.00    -0.316 OA  
ATOM     34  O4  UNL     1       5.941  -1.080   1.212  1.00  0.00    -0.316 OA  
ATOM     35  C24 UNL     1       5.708  -0.166   0.120  1.00  0.00     0.337 C   
ENDBRANCH  26  27
ENDBRANCH  23  26
ENDBRANCH  18  23
ENDBRANCH   3  18
TORSDOF 10
