REMARK SMILES CC(C)C[C@H]([NH2+]Cc1ccc2c(c1)OCO2)c1cn([C@H](CO)c2cccc(F)c2)nn1
REMARK SMILES IDX 17 1 18 2 19 3 30 4 31 5 5 7 4 8 2 9 1 10 3 11 6 12 7 15
REMARK SMILES IDX 8 16 9 17 13 18 10 19 12 20 11 21 14 22 16 23 15 24 20 25
REMARK SMILES IDX 21 26 22 27 23 29 24 30 29 31 25 32 27 33 26 34 28 35
REMARK H PARENT 18 6 6 13 6 14 22 28
ROOT
ATOM     1   C14 UNL     1      -0.852  -0.609  -1.202  1.00  0.00     0.127 A   
ATOM     2   C15 UNL     1      -2.023  -0.851  -0.522  1.00  0.00     0.046 A   
ATOM     3   N2  UNL     1      -1.726  -1.917   0.287  1.00  0.00    -0.202 N   
ATOM     4   N3  UNL     1      -0.441  -2.295   0.120  1.00  0.00    -0.075 NA  
ATOM     5   N4  UNL     1       0.099  -1.511  -0.798  1.00  0.00    -0.132 NA  
ATOM     6   H20 UNL     1      -3.003  -0.393  -0.531  1.00  0.00     0.083 HD  
ENDROOT
BRANCH   1   7
ATOM     7   C5  UNL     1      -0.499   0.438  -2.209  1.00  0.00     0.114 C   
BRANCH   7   8
ATOM     8   C4  UNL     1      -0.804  -0.055  -3.637  1.00  0.00     0.064 C   
BRANCH   8   9
ATOM     9   C2  UNL     1      -0.545   0.946  -4.783  1.00  0.00    -0.012 C   
ATOM     10  C1  UNL     1      -0.934   0.307  -6.121  1.00  0.00     0.007 C   
ATOM     11  C3  UNL     1      -1.306   2.260  -4.600  1.00  0.00     0.007 C   
ENDBRANCH   8   9
ENDBRANCH   7   8
BRANCH   7  12
ATOM     12  N1  UNL     1       0.961   0.784  -2.104  1.00  0.00     0.249 N   
ATOM     13  H11 UNL     1       1.301   1.286  -2.928  1.00  0.00     0.199 HD  
ATOM     14  H12 UNL     1       1.476  -0.109  -2.073  1.00  0.00     0.199 HD  
BRANCH  12  15
ATOM     15  C6  UNL     1       1.344   1.557  -0.889  1.00  0.00     0.164 C   
BRANCH  15  16
ATOM     16  C7  UNL     1       2.826   1.806  -0.875  1.00  0.00    -0.002 A   
ATOM     17  C8  UNL     1       3.359   3.009  -1.395  1.00  0.00     0.012 A   
ATOM     18  C12 UNL     1       3.698   0.814  -0.392  1.00  0.00     0.045 A   
ATOM     19  C9  UNL     1       4.740   3.229  -1.426  1.00  0.00     0.037 A   
ATOM     20  C11 UNL     1       5.054   1.062  -0.438  1.00  0.00     0.109 A   
ATOM     21  C10 UNL     1       5.561   2.235  -0.940  1.00  0.00     0.108 A   
ATOM     22  O1  UNL     1       6.028   0.214  -0.016  1.00  0.00    -0.316 OA  
ATOM     23  O2  UNL     1       6.918   2.275  -0.895  1.00  0.00    -0.316 OA  
ATOM     24  C13 UNL     1       7.211   1.000  -0.284  1.00  0.00     0.337 C   
ENDBRANCH  15  16
ENDBRANCH  12  15
ENDBRANCH   7  12
ENDBRANCH   1   7
BRANCH   3  25
ATOM     25  C16 UNL     1      -2.573  -2.590   1.273  1.00  0.00     0.155 C   
BRANCH  25  26
ATOM     26  C17 UNL     1      -3.607  -3.507   0.588  1.00  0.00     0.185 C   
BRANCH  26  27
ATOM     27  O3  UNL     1      -4.464  -2.808  -0.316  1.00  0.00    -0.394 OA  
ATOM     28  H24 UNL     1      -5.090  -3.465  -0.677  1.00  0.00     0.210 HD  
ENDBRANCH  26  27
ENDBRANCH  25  26
BRANCH  25  29
ATOM     29  C18 UNL     1      -3.085  -1.586   2.302  1.00  0.00    -0.020 A   
ATOM     30  C19 UNL     1      -4.410  -1.119   2.332  1.00  0.00     0.006 A   
ATOM     31  C23 UNL     1      -2.185  -1.080   3.260  1.00  0.00     0.045 A   
ATOM     32  C20 UNL     1      -4.822  -0.183   3.289  1.00  0.00     0.003 A   
ATOM     33  C22 UNL     1      -2.605  -0.145   4.202  1.00  0.00     0.123 A   
ATOM     34  C21 UNL     1      -3.916   0.306   4.226  1.00  0.00     0.039 A   
ATOM     35  F1  UNL     1      -1.724   0.331   5.091  1.00  0.00    -0.207 F   
ENDBRANCH  25  29
ENDBRANCH   3  25
TORSDOF 10
