REMARK SMILES CC(C)C[C@H]([NH2+]Cc1ccc2c(c1)OCO2)c1cn([C@@H](CO)c2cccc(F)c2)nn1
REMARK SMILES IDX 17 1 18 2 19 3 30 4 31 5 5 7 4 8 2 9 1 10 3 11 6 12 7 15
REMARK SMILES IDX 8 16 9 17 13 18 10 19 12 20 11 21 14 22 16 23 15 24 20 25
REMARK SMILES IDX 21 26 22 27 23 29 24 30 29 31 25 32 27 33 26 34 28 35
REMARK H PARENT 18 6 6 13 6 14 22 28
ROOT
ATOM     1   C14 UNL     1       1.542   0.201  -0.279  1.00  0.00     0.127 A   
ATOM     2   C15 UNL     1       1.705  -0.285   0.997  1.00  0.00     0.046 A   
ATOM     3   N2  UNL     1       2.976   0.093   1.342  1.00  0.00    -0.202 N   
ATOM     4   N3  UNL     1       3.546   0.802   0.343  1.00  0.00    -0.075 NA  
ATOM     5   N4  UNL     1       2.683   0.860  -0.659  1.00  0.00    -0.132 NA  
ATOM     6   H20 UNL     1       1.070  -0.846   1.670  1.00  0.00     0.083 HD  
ENDROOT
BRANCH   1   7
ATOM     7   C5  UNL     1       0.378   0.128  -1.214  1.00  0.00     0.114 C   
BRANCH   7   8
ATOM     8   C4  UNL     1       0.391  -1.197  -2.003  1.00  0.00     0.064 C   
BRANCH   8   9
ATOM     9   C2  UNL     1      -0.843  -1.471  -2.890  1.00  0.00    -0.012 C   
ATOM     10  C1  UNL     1      -0.660  -2.803  -3.625  1.00  0.00     0.007 C   
ATOM     11  C3  UNL     1      -2.146  -1.503  -2.088  1.00  0.00     0.007 C   
ENDBRANCH   8   9
ENDBRANCH   7   8
BRANCH   7  12
ATOM     12  N1  UNL     1       0.432   1.280  -2.189  1.00  0.00     0.249 N   
ATOM     13  H11 UNL     1       1.417   1.355  -2.482  1.00  0.00     0.199 HD  
ATOM     14  H12 UNL     1      -0.116   1.082  -3.030  1.00  0.00     0.199 HD  
BRANCH  12  15
ATOM     15  C6  UNL     1       0.023   2.608  -1.647  1.00  0.00     0.164 C   
BRANCH  15  16
ATOM     16  C7  UNL     1      -1.462   2.705  -1.428  1.00  0.00    -0.002 A   
ATOM     17  C8  UNL     1      -1.991   2.719  -0.115  1.00  0.00     0.012 A   
ATOM     18  C12 UNL     1      -2.339   2.750  -2.526  1.00  0.00     0.045 A   
ATOM     19  C9  UNL     1      -3.372   2.768   0.103  1.00  0.00     0.037 A   
ATOM     20  C11 UNL     1      -3.695   2.794  -2.276  1.00  0.00     0.109 A   
ATOM     21  C10 UNL     1      -4.198   2.802  -0.999  1.00  0.00     0.108 A   
ATOM     22  O1  UNL     1      -4.671   2.830  -3.220  1.00  0.00    -0.316 OA  
ATOM     23  O2  UNL     1      -5.554   2.845  -0.977  1.00  0.00    -0.316 OA  
ATOM     24  C13 UNL     1      -5.853   2.895  -2.389  1.00  0.00     0.337 C   
ENDBRANCH  15  16
ENDBRANCH  12  15
ENDBRANCH   7  12
ENDBRANCH   1   7
BRANCH   3  25
ATOM     25  C16 UNL     1       3.717  -0.175   2.575  1.00  0.00     0.155 C   
BRANCH  25  26
ATOM     26  C17 UNL     1       3.264   0.759   3.717  1.00  0.00     0.185 C   
BRANCH  26  27
ATOM     27  O3  UNL     1       1.863   0.680   3.985  1.00  0.00    -0.394 OA  
ATOM     28  H24 UNL     1       1.687   1.254   4.754  1.00  0.00     0.210 HD  
ENDBRANCH  26  27
ENDBRANCH  25  26
BRANCH  25  29
ATOM     29  C18 UNL     1       3.746  -1.672   2.868  1.00  0.00    -0.020 A   
ATOM     30  C19 UNL     1       4.650  -2.489   2.158  1.00  0.00     0.006 A   
ATOM     31  C23 UNL     1       2.891  -2.286   3.795  1.00  0.00     0.045 A   
ATOM     32  C20 UNL     1       4.702  -3.869   2.377  1.00  0.00     0.003 A   
ATOM     33  C22 UNL     1       2.951  -3.663   4.004  1.00  0.00     0.123 A   
ATOM     34  C21 UNL     1       3.849  -4.458   3.305  1.00  0.00     0.039 A   
ATOM     35  F1  UNL     1       2.121  -4.227   4.890  1.00  0.00    -0.207 F   
ENDBRANCH  25  29
ENDBRANCH   3  25
TORSDOF 10
