REMARK SMILES CC(C)(C)[C@H]([NH2+]Cc1ccc2c(c1)OCO2)c1cn(C[C@H](O)c2ccc(Cl)cc2)nn1
REMARK SMILES IDX 17 1 18 2 19 3 30 4 31 5 5 7 2 8 1 9 3 10 4 11 6 12 7 15
REMARK SMILES IDX 8 16 9 17 13 18 10 19 12 20 11 21 14 22 16 23 15 24 20 25
REMARK SMILES IDX 21 26 22 27 23 29 24 30 29 31 25 32 28 33 26 34 27 35
REMARK H PARENT 18 6 6 13 6 14 22 28
ROOT
ATOM     1   C14 UNL     1       1.500  -0.806  -0.693  1.00  0.00     0.127 A   
ATOM     2   C15 UNL     1       1.658   0.501  -1.099  1.00  0.00     0.046 A   
ATOM     3   N2  UNL     1       1.568   0.436  -2.461  1.00  0.00    -0.209 N   
ATOM     4   N3  UNL     1       1.349  -0.826  -2.871  1.00  0.00    -0.076 NA  
ATOM     5   N4  UNL     1       1.306  -1.597  -1.797  1.00  0.00    -0.132 NA  
ATOM     6   H20 UNL     1       1.808   1.431  -0.570  1.00  0.00     0.083 HD  
ENDROOT
BRANCH   1   7
ATOM     7   C5  UNL     1       1.421  -1.414   0.675  1.00  0.00     0.120 C   
BRANCH   7   8
ATOM     8   C2  UNL     1       2.787  -1.973   1.209  1.00  0.00     0.010 C   
ATOM     9   C1  UNL     1       2.637  -2.449   2.673  1.00  0.00     0.017 C   
ATOM     10  C3  UNL     1       3.322  -3.150   0.371  1.00  0.00     0.017 C   
ATOM     11  C4  UNL     1       3.854  -0.854   1.210  1.00  0.00     0.017 C   
ENDBRANCH   7   8
BRANCH   7  12
ATOM     12  N1  UNL     1       0.371  -2.508   0.664  1.00  0.00     0.250 N   
ATOM     13  H11 UNL     1       0.599  -3.116  -0.135  1.00  0.00     0.199 HD  
ATOM     14  H12 UNL     1       0.425  -3.084   1.508  1.00  0.00     0.199 HD  
BRANCH  12  15
ATOM     15  C6  UNL     1      -1.046  -2.066   0.483  1.00  0.00     0.164 C   
BRANCH  15  16
ATOM     16  C7  UNL     1      -1.570  -1.292   1.660  1.00  0.00    -0.002 A   
ATOM     17  C8  UNL     1      -1.720   0.113   1.580  1.00  0.00     0.012 A   
ATOM     18  C12 UNL     1      -1.889  -1.955   2.858  1.00  0.00     0.045 A   
ATOM     19  C9  UNL     1      -2.178   0.852   2.676  1.00  0.00     0.037 A   
ATOM     20  C11 UNL     1      -2.339  -1.196   3.919  1.00  0.00     0.109 A   
ATOM     21  C10 UNL     1      -2.478   0.167   3.833  1.00  0.00     0.108 A   
ATOM     22  O1  UNL     1      -2.688  -1.678   5.141  1.00  0.00    -0.316 OA  
ATOM     23  O2  UNL     1      -2.931   0.716   4.989  1.00  0.00    -0.316 OA  
ATOM     24  C13 UNL     1      -3.094  -0.462   5.809  1.00  0.00     0.337 C   
ENDBRANCH  15  16
ENDBRANCH  12  15
ENDBRANCH   7  12
ENDBRANCH   1   7
BRANCH   3  25
ATOM     25  C16 UNL     1       1.623   1.524  -3.410  1.00  0.00     0.170 C   
BRANCH  25  26
ATOM     26  C17 UNL     1       0.293   1.757  -4.137  1.00  0.00     0.164 C   
BRANCH  26  27
ATOM     27  O3  UNL     1       0.448   2.866  -5.025  1.00  0.00    -0.387 OA  
ATOM     28  H24 UNL     1      -0.437   3.094  -5.367  1.00  0.00     0.211 HD  
ENDBRANCH  26  27
BRANCH  26  29
ATOM     29  C18 UNL     1      -0.861   2.045  -3.194  1.00  0.00    -0.018 A   
ATOM     30  C19 UNL     1      -1.892   1.105  -3.035  1.00  0.00     0.008 A   
ATOM     31  C23 UNL     1      -0.909   3.237  -2.453  1.00  0.00     0.008 A   
ATOM     32  C20 UNL     1      -2.943   1.350  -2.148  1.00  0.00     0.021 A   
ATOM     33  C22 UNL     1      -1.957   3.479  -1.563  1.00  0.00     0.021 A   
ATOM     34  C21 UNL     1      -2.968   2.533  -1.413  1.00  0.00     0.041 A   
ATOM     35  CL1 UNL     1      -4.243   2.814  -0.294  1.00  0.00    -0.084 Cl  
ENDBRANCH  26  29
ENDBRANCH  25  26
ENDBRANCH   3  25
TORSDOF 9
