REMARK SMILES CC(C)(C)[C@H]([NH2+]Cc1ccc2c(c1)OCO2)c1cn(C[C@@H](O)c2ccc(Cl)cc2)nn1
REMARK SMILES IDX 17 1 18 2 19 3 30 4 31 5 5 7 2 8 1 9 3 10 4 11 6 12 7 15
REMARK SMILES IDX 8 16 9 17 13 18 10 19 12 20 11 21 14 22 16 23 15 24 20 25
REMARK SMILES IDX 21 26 22 27 23 29 24 30 29 31 25 32 28 33 26 34 27 35
REMARK H PARENT 18 6 6 13 6 14 22 28
ROOT
ATOM     1   C14 UNL     1      -0.147  -0.774   0.095  1.00  0.00     0.127 A   
ATOM     2   C15 UNL     1       0.369  -1.636  -0.848  1.00  0.00     0.046 A   
ATOM     3   N2  UNL     1       1.643  -1.875  -0.414  1.00  0.00    -0.209 N   
ATOM     4   N3  UNL     1       1.867  -1.283   0.773  1.00  0.00    -0.076 NA  
ATOM     5   N4  UNL     1       0.788  -0.583   1.083  1.00  0.00    -0.132 NA  
ATOM     6   H20 UNL     1      -0.014  -2.042  -1.773  1.00  0.00     0.083 HD  
ENDROOT
BRANCH   1   7
ATOM     7   C5  UNL     1      -1.486  -0.105   0.204  1.00  0.00     0.120 C   
BRANCH   7   8
ATOM     8   C2  UNL     1      -1.587   1.245  -0.596  1.00  0.00     0.010 C   
ATOM     9   C1  UNL     1      -0.609   2.316  -0.071  1.00  0.00     0.017 C   
ATOM     10  C3  UNL     1      -3.023   1.814  -0.519  1.00  0.00     0.017 C   
ATOM     11  C4  UNL     1      -1.284   1.007  -2.095  1.00  0.00     0.017 C   
ENDBRANCH   7   8
BRANCH   7  12
ATOM     12  N1  UNL     1      -1.795   0.130   1.665  1.00  0.00     0.250 N   
ATOM     13  H11 UNL     1      -2.544   0.812   1.806  1.00  0.00     0.199 HD  
ATOM     14  H12 UNL     1      -0.947   0.544   2.078  1.00  0.00     0.199 HD  
BRANCH  12  15
ATOM     15  C6  UNL     1      -2.112  -1.089   2.465  1.00  0.00     0.164 C   
BRANCH  15  16
ATOM     16  C7  UNL     1      -2.331  -0.719   3.905  1.00  0.00    -0.002 A   
ATOM     17  C8  UNL     1      -1.223  -0.414   4.734  1.00  0.00     0.012 A   
ATOM     18  C12 UNL     1      -3.631  -0.618   4.425  1.00  0.00     0.045 A   
ATOM     19  C9  UNL     1      -1.409  -0.004   6.058  1.00  0.00     0.037 A   
ATOM     20  C11 UNL     1      -3.777  -0.218   5.738  1.00  0.00     0.109 A   
ATOM     21  C10 UNL     1      -2.699   0.088   6.528  1.00  0.00     0.108 A   
ATOM     22  O1  UNL     1      -4.960  -0.066   6.391  1.00  0.00    -0.316 OA  
ATOM     23  O2  UNL     1      -3.066   0.478   7.776  1.00  0.00    -0.316 OA  
ATOM     24  C13 UNL     1      -4.498   0.330   7.703  1.00  0.00     0.337 C   
ENDBRANCH  15  16
ENDBRANCH  12  15
ENDBRANCH   7  12
ENDBRANCH   1   7
BRANCH   3  25
ATOM     25  C16 UNL     1       2.696  -2.589  -1.099  1.00  0.00     0.170 C   
BRANCH  25  26
ATOM     26  C17 UNL     1       3.871  -1.688  -1.499  1.00  0.00     0.164 C   
BRANCH  26  27
ATOM     27  O3  UNL     1       4.829  -2.479  -2.206  1.00  0.00    -0.387 OA  
ATOM     28  H24 UNL     1       5.587  -1.899  -2.405  1.00  0.00     0.211 HD  
ENDBRANCH  26  27
BRANCH  26  29
ATOM     29  C18 UNL     1       3.444  -0.534  -2.385  1.00  0.00    -0.018 A   
ATOM     30  C19 UNL     1       3.370   0.766  -1.860  1.00  0.00     0.008 A   
ATOM     31  C23 UNL     1       3.066  -0.749  -3.721  1.00  0.00     0.008 A   
ATOM     32  C20 UNL     1       2.914   1.824  -2.651  1.00  0.00     0.021 A   
ATOM     33  C22 UNL     1       2.607   0.309  -4.509  1.00  0.00     0.021 A   
ATOM     34  C21 UNL     1       2.529   1.590  -3.969  1.00  0.00     0.041 A   
ATOM     35  CL1 UNL     1       1.935   2.889  -4.927  1.00  0.00    -0.084 Cl  
ENDBRANCH  26  29
ENDBRANCH  25  26
ENDBRANCH   3  25
TORSDOF 9
