REMARK SMILES CC(C)C[C@H]([NH2+]Cc1ccc2c(c1)OCO2)c1cn(Cc2ccc(O)cc2Cl)nn1
REMARK SMILES IDX 17 1 18 2 19 3 29 4 30 5 5 7 4 8 2 9 1 10 3 11 6 12 7 15
REMARK SMILES IDX 8 16 9 17 13 18 10 19 12 20 11 21 14 22 16 23 15 24 20 25
REMARK SMILES IDX 21 26 22 27 27 28 23 29 26 30 24 31 28 32 25 33
REMARK H PARENT 18 6 6 13 6 14 25 34
ROOT
ATOM     1   C14 UNL     1       1.024  -0.495   0.202  1.00  0.00     0.127 A   
ATOM     2   C15 UNL     1       0.311  -0.871  -0.915  1.00  0.00     0.046 A   
ATOM     3   N2  UNL     1       1.246  -1.462  -1.720  1.00  0.00    -0.208 N   
ATOM     4   N3  UNL     1       2.435  -1.543  -1.090  1.00  0.00    -0.076 NA  
ATOM     5   N4  UNL     1       2.317  -0.935   0.079  1.00  0.00    -0.132 NA  
ATOM     6   H20 UNL     1      -0.719  -0.743  -1.216  1.00  0.00     0.083 HD  
ENDROOT
BRANCH   1   7
ATOM     7   C5  UNL     1       0.605   0.227   1.444  1.00  0.00     0.114 C   
BRANCH   7   8
ATOM     8   C4  UNL     1       0.851   1.745   1.348  1.00  0.00     0.064 C   
BRANCH   8   9
ATOM     9   C2  UNL     1       0.031   2.475   0.261  1.00  0.00    -0.012 C   
ATOM     10  C1  UNL     1       0.431   3.952   0.219  1.00  0.00     0.007 C   
ATOM     11  C3  UNL     1      -1.476   2.357   0.494  1.00  0.00     0.007 C   
ENDBRANCH   8   9
ENDBRANCH   7   8
BRANCH   7  12
ATOM     12  N1  UNL     1       1.419  -0.335   2.592  1.00  0.00     0.249 N   
ATOM     13  H11 UNL     1       1.365  -1.359   2.511  1.00  0.00     0.199 HD  
ATOM     14  H12 UNL     1       2.408  -0.128   2.394  1.00  0.00     0.199 HD  
BRANCH  12  15
ATOM     15  C6  UNL     1       1.070   0.050   3.982  1.00  0.00     0.164 C   
BRANCH  15  16
ATOM     16  C7  UNL     1      -0.342  -0.301   4.360  1.00  0.00    -0.002 A   
ATOM     17  C8  UNL     1      -1.315   0.716   4.515  1.00  0.00     0.012 A   
ATOM     18  C12 UNL     1      -0.716  -1.646   4.531  1.00  0.00     0.045 A   
ATOM     19  C9  UNL     1      -2.640   0.402   4.834  1.00  0.00     0.037 A   
ATOM     20  C11 UNL     1      -2.031  -1.921   4.843  1.00  0.00     0.109 A   
ATOM     21  C10 UNL     1      -2.966  -0.927   4.991  1.00  0.00     0.108 A   
ATOM     22  O1  UNL     1      -2.555  -3.160   5.033  1.00  0.00    -0.316 OA  
ATOM     23  O2  UNL     1      -4.196  -1.413   5.298  1.00  0.00    -0.316 OA  
ATOM     24  C13 UNL     1      -3.926  -2.831   5.355  1.00  0.00     0.337 C   
ENDBRANCH  15  16
ENDBRANCH  12  15
ENDBRANCH   7  12
ENDBRANCH   1   7
BRANCH   3  25
ATOM     25  C16 UNL     1       1.077  -1.996  -3.062  1.00  0.00     0.171 C   
BRANCH  25  26
ATOM     26  C17 UNL     1       1.533  -1.006  -4.105  1.00  0.00    -0.010 A   
ATOM     27  C18 UNL     1       2.866  -1.062  -4.559  1.00  0.00     0.009 A   
ATOM     28  C22 UNL     1       0.694  -0.004  -4.625  1.00  0.00     0.048 A   
ATOM     29  C19 UNL     1       3.342  -0.154  -5.508  1.00  0.00     0.033 A   
ATOM     30  C21 UNL     1       1.170   0.903  -5.573  1.00  0.00     0.054 A   
ATOM     31  C20 UNL     1       2.487   0.820  -6.007  1.00  0.00     0.073 A   
ATOM     32  CL1 UNL     1      -0.951   0.161  -4.120  1.00  0.00    -0.084 Cl  
BRANCH  31  33
ATOM     33  O3  UNL     1       2.906   1.729  -6.931  1.00  0.00    -0.361 OA  
ATOM     34  H25 UNL     1       3.825   1.534  -7.182  1.00  0.00     0.218 HD  
ENDBRANCH  31  33
ENDBRANCH  25  26
ENDBRANCH   3  25
TORSDOF 9
