REMARK SMILES Cc1c[nH]c(C)c1CCn1cc([C@@H]([NH2+]Cc2ccc3c(c2)OCO3)C2CCCCC2)nn1
REMARK SMILES IDX 10 1 11 2 12 3 31 4 32 5 9 7 8 8 7 9 2 10 3 11 4 12 5 13
REMARK SMILES IDX 1 14 6 16 13 17 14 18 15 21 16 22 17 23 21 24 18 25 20 26
REMARK SMILES IDX 19 27 22 28 24 29 23 30 25 31 26 32 30 33 27 34 29 35 28 36
REMARK H PARENT 11 6 4 15 14 19 14 20
ROOT
ATOM     1   N2  UNL     1      -1.480   1.960  -1.688  1.00  0.00    -0.212 N   
ATOM     2   C9  UNL     1      -1.413   1.450  -0.421  1.00  0.00     0.045 A   
ATOM     3   C10 UNL     1      -0.136   0.945  -0.335  1.00  0.00     0.127 A   
ATOM     4   N4  UNL     1       0.523   1.181  -1.518  1.00  0.00    -0.132 NA  
ATOM     5   N5  UNL     1      -0.313   1.790  -2.341  1.00  0.00    -0.076 NA  
ATOM     6   H13 UNL     1      -2.259   1.464   0.251  1.00  0.00     0.083 HD  
ENDROOT
BRANCH   1   7
ATOM     7   C8  UNL     1      -2.607   2.592  -2.341  1.00  0.00     0.139 C   
BRANCH   7   8
ATOM     8   C7  UNL     1      -3.461   1.606  -3.135  1.00  0.00     0.059 C   
BRANCH   8   9
ATOM     9   C6  UNL     1      -4.144   0.583  -2.268  1.00  0.00    -0.025 A   
ATOM     10  C2  UNL     1      -3.800  -0.805  -2.151  1.00  0.00    -0.032 A   
ATOM     11  C3  UNL     1      -4.690  -1.359  -1.253  1.00  0.00     0.075 A   
ATOM     12  N1  UNL     1      -5.561  -0.387  -0.842  1.00  0.00    -0.324 N   
ATOM     13  C4  UNL     1      -5.238   0.805  -1.440  1.00  0.00     0.007 A   
ATOM     14  C1  UNL     1      -2.727  -1.538  -2.876  1.00  0.00     0.046 C   
ATOM     15  H5  UNL     1      -6.345  -0.538  -0.221  1.00  0.00     0.152 HD  
ATOM     16  C5  UNL     1      -6.031   2.036  -1.178  1.00  0.00     0.062 C   
ENDBRANCH   8   9
ENDBRANCH   7   8
ENDBRANCH   1   7
BRANCH   3  17
ATOM     17  C11 UNL     1       0.558   0.191   0.756  1.00  0.00     0.117 C   
BRANCH  17  18
ATOM     18  N3  UNL     1       1.726  -0.568   0.186  1.00  0.00     0.249 N   
ATOM     19  H15 UNL     1       2.435  -0.797   0.888  1.00  0.00     0.199 HD  
ATOM     20  H16 UNL     1       2.182   0.069  -0.486  1.00  0.00     0.199 HD  
BRANCH  18  21
ATOM     21  C12 UNL     1       1.363  -1.802  -0.567  1.00  0.00     0.164 C   
BRANCH  21  22
ATOM     22  C13 UNL     1       2.547  -2.324  -1.329  1.00  0.00    -0.002 A   
ATOM     23  C14 UNL     1       2.867  -1.775  -2.594  1.00  0.00     0.012 A   
ATOM     24  C18 UNL     1       3.368  -3.321  -0.778  1.00  0.00     0.045 A   
ATOM     25  C15 UNL     1       3.982  -2.221  -3.310  1.00  0.00     0.037 A   
ATOM     26  C17 UNL     1       4.460  -3.739  -1.511  1.00  0.00     0.109 A   
ATOM     27  C16 UNL     1       4.758  -3.206  -2.741  1.00  0.00     0.108 A   
ATOM     28  O1  UNL     1       5.349  -4.692  -1.129  1.00  0.00    -0.316 OA  
ATOM     29  O2  UNL     1       5.869  -3.759  -3.290  1.00  0.00    -0.316 OA  
ATOM     30  C19 UNL     1       6.249  -4.697  -2.260  1.00  0.00     0.337 C   
ENDBRANCH  21  22
ENDBRANCH  18  21
ENDBRANCH  17  18
BRANCH  17  31
ATOM     31  C20 UNL     1       1.017   1.117   1.912  1.00  0.00     0.043 C   
ATOM     32  C21 UNL     1       1.452   0.311   3.153  1.00  0.00     0.010 C   
ATOM     33  C25 UNL     1       2.122   2.117   1.519  1.00  0.00     0.010 C   
ATOM     34  C22 UNL     1       1.810   1.231   4.320  1.00  0.00     0.001 C   
ATOM     35  C24 UNL     1       2.481   3.037   2.686  1.00  0.00     0.001 C   
ATOM     36  C23 UNL     1       2.879   2.248   3.930  1.00  0.00     0.000 C   
ENDBRANCH  17  31
ENDBRANCH   3  17
TORSDOF 8
