REMARK SMILES CC(C)C[C@H]([NH2+]Cc1ccc2c(c1)OCO2)c1cn(-c2cc(N)ccc2Cl)nn1
REMARK SMILES IDX 17 1 18 2 19 3 28 4 29 5 5 6 4 7 2 8 1 9 3 10 6 11 7 14 8 15
REMARK SMILES IDX 9 16 13 17 10 18 12 19 11 20 14 21 16 22 15 23 20 24 21 25
REMARK SMILES IDX 26 26 22 27 25 28 24 29 27 30 23 31
REMARK H PARENT 6 12 6 13 23 32 23 33
ROOT
ATOM     1   C14 UNL     1      -0.359  -0.260   2.154  1.00  0.00     0.127 A   
ATOM     2   C15 UNL     1      -1.247  -0.348   1.106  1.00  0.00     0.135 A   
ATOM     3   N2  UNL     1      -1.325   0.925   0.576  1.00  0.00    -0.179 N   
ATOM     4   N4  UNL     1      -0.580   1.750   1.371  1.00  0.00    -0.071 NA  
ATOM     5   N5  UNL     1       0.032   1.036   2.300  1.00  0.00    -0.131 NA  
ENDROOT
BRANCH   1   6
ATOM     6   C5  UNL     1       0.242  -1.311   3.030  1.00  0.00     0.114 C   
BRANCH   6   7
ATOM     7   C4  UNL     1      -0.435  -1.327   4.415  1.00  0.00     0.064 C   
BRANCH   7   8
ATOM     8   C2  UNL     1      -0.001  -2.464   5.366  1.00  0.00    -0.012 C   
ATOM     9   C1  UNL     1      -0.731  -2.317   6.705  1.00  0.00     0.007 C   
ATOM     10  C3  UNL     1      -0.272  -3.852   4.783  1.00  0.00     0.007 C   
ENDBRANCH   7   8
ENDBRANCH   6   7
BRANCH   6  11
ATOM     11  N1  UNL     1       1.720  -1.026   3.198  1.00  0.00     0.249 N   
ATOM     12  H11 UNL     1       2.032  -1.232   4.150  1.00  0.00     0.199 HD  
ATOM     13  H12 UNL     1       1.825  -0.005   3.091  1.00  0.00     0.199 HD  
BRANCH  11  14
ATOM     14  C6  UNL     1       2.638  -1.697   2.231  1.00  0.00     0.164 C   
BRANCH  14  15
ATOM     15  C7  UNL     1       2.363  -1.368   0.790  1.00  0.00    -0.002 A   
ATOM     16  C8  UNL     1       2.628  -0.072   0.285  1.00  0.00     0.012 A   
ATOM     17  C12 UNL     1       1.797  -2.335  -0.059  1.00  0.00     0.045 A   
ATOM     18  C9  UNL     1       2.315   0.264  -1.037  1.00  0.00     0.037 A   
ATOM     19  C11 UNL     1       1.505  -1.972  -1.357  1.00  0.00     0.109 A   
ATOM     20  C10 UNL     1       1.752  -0.708  -1.832  1.00  0.00     0.108 A   
ATOM     21  O1  UNL     1       0.947  -2.780  -2.296  1.00  0.00    -0.316 OA  
ATOM     22  O2  UNL     1       1.379  -0.560  -3.129  1.00  0.00    -0.316 OA  
ATOM     23  C13 UNL     1       0.909  -1.890  -3.435  1.00  0.00     0.337 C   
ENDBRANCH  14  15
ENDBRANCH  11  14
ENDBRANCH   6  11
ENDBRANCH   1   6
BRANCH   3  24
ATOM     24  C16 UNL     1      -2.014   1.442  -0.557  1.00  0.00     0.078 A   
ATOM     25  C17 UNL     1      -2.104   2.851  -0.663  1.00  0.00     0.050 A   
ATOM     26  C21 UNL     1      -2.585   0.662  -1.573  1.00  0.00     0.064 A   
ATOM     27  C18 UNL     1      -2.798   3.474  -1.706  1.00  0.00     0.025 A   
ATOM     28  C20 UNL     1      -3.235   1.291  -2.646  1.00  0.00     0.024 A   
ATOM     29  C19 UNL     1      -3.324   2.681  -2.719  1.00  0.00     0.025 A   
ATOM     30  CL1 UNL     1      -2.484  -1.057  -1.707  1.00  0.00    -0.082 Cl  
BRANCH  27  31
ATOM     31  N3  UNL     1      -2.765   4.862  -1.843  1.00  0.00    -0.358 N   
ATOM     32  H22 UNL     1      -3.498   5.250  -2.431  1.00  0.00     0.143 HD  
ATOM     33  H23 UNL     1      -2.658   5.380  -0.976  1.00  0.00     0.143 HD  
ENDBRANCH  27  31
ENDBRANCH   3  24
TORSDOF 8
