REMARK SMILES CC(C)[C@H]([NH2+]Cc1ccc2c(c1)OCO2)c1cn(Cc2c(F)cccc2F)nn1
REMARK SMILES IDX 16 1 17 2 18 3 28 4 29 5 4 7 2 8 1 9 3 10 5 11 6 14 7 15
REMARK SMILES IDX 8 16 12 17 9 18 11 19 10 20 13 21 15 22 14 23 19 24 20 25
REMARK SMILES IDX 21 26 26 27 23 28 25 29 24 30 22 31 27 32
REMARK H PARENT 17 6 5 12 5 13
ROOT
ATOM     1   C13 UNL     1       1.948  -1.571  -0.755  1.00  0.00     0.127 A   
ATOM     2   C14 UNL     1       2.803  -2.581  -0.376  1.00  0.00     0.046 A   
ATOM     3   N2  UNL     1       3.479  -2.060   0.694  1.00  0.00    -0.208 N   
ATOM     4   N3  UNL     1       3.060  -0.808   0.960  1.00  0.00    -0.076 NA  
ATOM     5   N4  UNL     1       2.128  -0.495   0.076  1.00  0.00    -0.132 NA  
ATOM     6   H18 UNL     1       2.989  -3.581  -0.746  1.00  0.00     0.083 HD  
ENDROOT
BRANCH   1   7
ATOM     7   C4  UNL     1       0.922  -1.497  -1.842  1.00  0.00     0.117 C   
BRANCH   7   8
ATOM     8   C2  UNL     1       1.561  -1.232  -3.231  1.00  0.00     0.037 C   
ATOM     9   C1  UNL     1       0.565  -1.482  -4.371  1.00  0.00     0.014 C   
ATOM     10  C3  UNL     1       2.174   0.166  -3.377  1.00  0.00     0.014 C   
ENDBRANCH   7   8
BRANCH   7  11
ATOM     11  N1  UNL     1      -0.098  -0.435  -1.528  1.00  0.00     0.249 N   
ATOM     12  H9  UNL     1      -0.596  -0.115  -2.362  1.00  0.00     0.199 HD  
ATOM     13  H10 UNL     1       0.426   0.380  -1.175  1.00  0.00     0.199 HD  
BRANCH  11  14
ATOM     14  C5  UNL     1      -1.091  -0.796  -0.479  1.00  0.00     0.164 C   
BRANCH  14  15
ATOM     15  C6  UNL     1      -2.001   0.368  -0.203  1.00  0.00    -0.002 A   
ATOM     16  C7  UNL     1      -3.210   0.522  -0.923  1.00  0.00     0.012 A   
ATOM     17  C11 UNL     1      -1.623   1.345   0.735  1.00  0.00     0.045 A   
ATOM     18  C8  UNL     1      -4.038   1.629  -0.707  1.00  0.00     0.037 A   
ATOM     19  C10 UNL     1      -2.463   2.423   0.924  1.00  0.00     0.109 A   
ATOM     20  C9  UNL     1      -3.636   2.561   0.224  1.00  0.00     0.108 A   
ATOM     21  O1  UNL     1      -2.248   3.449   1.788  1.00  0.00    -0.316 OA  
ATOM     22  O2  UNL     1      -4.309   3.692   0.560  1.00  0.00    -0.316 OA  
ATOM     23  C12 UNL     1      -3.430   4.250   1.561  1.00  0.00     0.337 C   
ENDBRANCH  14  15
ENDBRANCH  11  14
ENDBRANCH   7  11
ENDBRANCH   1   7
BRANCH   3  24
ATOM     24  C15 UNL     1       4.541  -2.674   1.473  1.00  0.00     0.175 C   
BRANCH  24  25
ATOM     25  C16 UNL     1       4.003  -3.346   2.698  1.00  0.00     0.043 A   
ATOM     26  C17 UNL     1       3.382  -4.593   2.622  1.00  0.00     0.131 A   
ATOM     27  C21 UNL     1       4.096  -2.741   3.951  1.00  0.00     0.131 A   
ATOM     28  C18 UNL     1       2.879  -5.229   3.755  1.00  0.00     0.040 A   
ATOM     29  C20 UNL     1       3.599  -3.359   5.096  1.00  0.00     0.040 A   
ATOM     30  C19 UNL     1       2.990  -4.610   5.000  1.00  0.00     0.006 A   
ATOM     31  F1  UNL     1       3.259  -5.197   1.431  1.00  0.00    -0.207 F   
ATOM     32  F2  UNL     1       4.683  -1.542   4.066  1.00  0.00    -0.207 F   
ENDBRANCH  24  25
ENDBRANCH   3  24
TORSDOF 7
