REMARK SMILES Cc1cccc(C)c1[C@H](CO)n1cc([C@@H]([NH2+]Cc2ccc3c(c2)OCO3)C(C)C)nn1
REMARK SMILES IDX 12 1 13 2 14 3 30 4 31 5 9 7 8 8 2 9 3 10 4 11 6 12 5 13
REMARK SMILES IDX 1 14 7 15 10 16 11 17 15 19 16 20 17 23 18 24 19 25 23 26
REMARK SMILES IDX 20 27 22 28 21 29 24 30 26 31 25 32 27 33 28 34 29 35
REMARK H PARENT 13 6 11 18 16 21 16 22
ROOT
ATOM     1   N1  UNL     1      -0.564  -1.211  -1.182  1.00  0.00    -0.202 N   
ATOM     2   C11 UNL     1      -0.945   0.107  -1.241  1.00  0.00     0.046 A   
ATOM     3   C12 UNL     1       0.144   0.797  -0.761  1.00  0.00     0.127 A   
ATOM     4   N3  UNL     1       1.117  -0.098  -0.399  1.00  0.00    -0.132 NA  
ATOM     5   N4  UNL     1       0.679  -1.316  -0.667  1.00  0.00    -0.075 NA  
ATOM     6   H14 UNL     1      -1.914   0.406  -1.617  1.00  0.00     0.083 HD  
ENDROOT
BRANCH   1   7
ATOM     7   C9  UNL     1      -1.335  -2.373  -1.635  1.00  0.00     0.156 C   
BRANCH   7   8
ATOM     8   C8  UNL     1      -2.527  -2.653  -0.707  1.00  0.00    -0.017 A   
ATOM     9   C2  UNL     1      -2.376  -2.939   0.679  1.00  0.00    -0.046 A   
ATOM     10  C3  UNL     1      -3.517  -3.155   1.475  1.00  0.00     0.004 A   
ATOM     11  C4  UNL     1      -4.793  -3.123   0.930  1.00  0.00     0.001 A   
ATOM     12  C6  UNL     1      -3.844  -2.650  -1.255  1.00  0.00    -0.046 A   
ATOM     13  C5  UNL     1      -4.955  -2.876  -0.425  1.00  0.00     0.004 A   
ATOM     14  C1  UNL     1      -1.050  -2.986   1.397  1.00  0.00     0.045 C   
ATOM     15  C7  UNL     1      -4.120  -2.410  -2.720  1.00  0.00     0.045 C   
ENDBRANCH   7   8
BRANCH   7  16
ATOM     16  C10 UNL     1      -0.500  -3.627  -1.958  1.00  0.00     0.185 C   
BRANCH  16  17
ATOM     17  O1  UNL     1       0.129  -3.478  -3.236  1.00  0.00    -0.394 OA  
ATOM     18  H13 UNL     1       0.740  -4.228  -3.342  1.00  0.00     0.210 HD  
ENDBRANCH  16  17
ENDBRANCH   7  16
ENDBRANCH   1   7
BRANCH   3  19
ATOM     19  C13 UNL     1       0.378   2.257  -0.548  1.00  0.00     0.117 C   
BRANCH  19  20
ATOM     20  N2  UNL     1       1.298   2.457   0.632  1.00  0.00     0.249 N   
ATOM     21  H16 UNL     1       1.771   3.365   0.592  1.00  0.00     0.199 HD  
ATOM     22  H17 UNL     1       2.036   1.740   0.553  1.00  0.00     0.199 HD  
BRANCH  20  23
ATOM     23  C14 UNL     1       0.662   2.290   1.967  1.00  0.00     0.164 C   
BRANCH  23  24
ATOM     24  C15 UNL     1       1.696   2.377   3.054  1.00  0.00    -0.002 A   
ATOM     25  C16 UNL     1       2.261   1.196   3.591  1.00  0.00     0.012 A   
ATOM     26  C20 UNL     1       2.150   3.628   3.504  1.00  0.00     0.045 A   
ATOM     27  C17 UNL     1       3.253   1.256   4.575  1.00  0.00     0.037 A   
ATOM     28  C19 UNL     1       3.137   3.653   4.469  1.00  0.00     0.109 A   
ATOM     29  C18 UNL     1       3.671   2.500   4.991  1.00  0.00     0.108 A   
ATOM     30  O2  UNL     1       3.696   4.772   4.999  1.00  0.00    -0.316 OA  
ATOM     31  O3  UNL     1       4.624   2.750   5.926  1.00  0.00    -0.316 OA  
ATOM     32  C21 UNL     1       4.632   4.193   5.936  1.00  0.00     0.337 C   
ENDBRANCH  23  24
ENDBRANCH  20  23
ENDBRANCH  19  20
BRANCH  19  33
ATOM     33  C22 UNL     1       0.988   2.989  -1.772  1.00  0.00     0.037 C   
ATOM     34  C23 UNL     1       2.347   2.440  -2.220  1.00  0.00     0.014 C   
ATOM     35  C24 UNL     1       0.020   3.007  -2.960  1.00  0.00     0.014 C   
ENDBRANCH  19  33
ENDBRANCH   3  19
TORSDOF 9
