REMARK SMILES Cc1cccc(C)c1[C@@H](CO)n1cc([C@@H]([NH2+]Cc2ccc3c(c2)OCO3)C(C)C)nn1
REMARK SMILES IDX 12 1 13 2 14 3 30 4 31 5 9 7 8 8 2 9 3 10 4 11 6 12 5 13
REMARK SMILES IDX 1 14 7 15 10 16 11 17 15 19 16 20 17 23 18 24 19 25 23 26
REMARK SMILES IDX 20 27 22 28 21 29 24 30 26 31 25 32 27 33 28 34 29 35
REMARK H PARENT 13 6 11 18 16 21 16 22
ROOT
ATOM     1   N1  UNL     1      -1.414   0.176   0.317  1.00  0.00    -0.202 N   
ATOM     2   C11 UNL     1      -0.082   0.371   0.046  1.00  0.00     0.046 A   
ATOM     3   C12 UNL     1       0.053   1.739  -0.022  1.00  0.00     0.127 A   
ATOM     4   N3  UNL     1      -1.166   2.324   0.207  1.00  0.00    -0.132 NA  
ATOM     5   N4  UNL     1      -2.054   1.364   0.403  1.00  0.00    -0.075 NA  
ATOM     6   H14 UNL     1       0.601  -0.453  -0.108  1.00  0.00     0.083 HD  
ENDROOT
BRANCH   1   7
ATOM     7   C9  UNL     1      -2.152  -1.093   0.331  1.00  0.00     0.156 C   
BRANCH   7   8
ATOM     8   C8  UNL     1      -1.407  -2.165   1.135  1.00  0.00    -0.017 A   
ATOM     9   C2  UNL     1      -0.902  -3.315   0.461  1.00  0.00    -0.046 A   
ATOM     10  C3  UNL     1      -0.206  -4.301   1.179  1.00  0.00     0.004 A   
ATOM     11  C4  UNL     1      -0.010  -4.181   2.547  1.00  0.00     0.001 A   
ATOM     12  C6  UNL     1      -1.197  -2.053   2.538  1.00  0.00    -0.046 A   
ATOM     13  C5  UNL     1      -0.507  -3.073   3.220  1.00  0.00     0.004 A   
ATOM     14  C1  UNL     1      -1.088  -3.542  -1.020  1.00  0.00     0.045 C   
ATOM     15  C7  UNL     1      -1.727  -0.924   3.385  1.00  0.00     0.045 C   
ENDBRANCH   7   8
BRANCH   7  16
ATOM     16  C10 UNL     1      -3.636  -0.960   0.732  1.00  0.00     0.185 C   
BRANCH  16  17
ATOM     17  O1  UNL     1      -4.396  -0.338  -0.312  1.00  0.00    -0.394 OA  
ATOM     18  H13 UNL     1      -4.142   0.607  -0.319  1.00  0.00     0.210 HD  
ENDBRANCH  16  17
ENDBRANCH   7  16
ENDBRANCH   1   7
BRANCH   3  19
ATOM     19  C13 UNL     1       1.214   2.594  -0.414  1.00  0.00     0.117 C   
BRANCH  19  20
ATOM     20  N2  UNL     1       0.746   3.665  -1.382  1.00  0.00     0.249 N   
ATOM     21  H16 UNL     1       1.268   4.534  -1.236  1.00  0.00     0.199 HD  
ATOM     22  H17 UNL     1      -0.232   3.871  -1.123  1.00  0.00     0.199 HD  
BRANCH  20  23
ATOM     23  C14 UNL     1       0.786   3.317  -2.835  1.00  0.00     0.164 C   
BRANCH  23  24
ATOM     24  C15 UNL     1      -0.046   2.122  -3.210  1.00  0.00    -0.002 A   
ATOM     25  C16 UNL     1       0.576   0.898  -3.560  1.00  0.00     0.012 A   
ATOM     26  C20 UNL     1      -1.449   2.193  -3.165  1.00  0.00     0.045 A   
ATOM     27  C17 UNL     1      -0.185  -0.245  -3.828  1.00  0.00     0.037 A   
ATOM     28  C19 UNL     1      -2.169   1.046  -3.429  1.00  0.00     0.109 A   
ATOM     29  C18 UNL     1      -1.555  -0.140  -3.744  1.00  0.00     0.108 A   
ATOM     30  O2  UNL     1      -3.522   0.937  -3.392  1.00  0.00    -0.316 OA  
ATOM     31  O3  UNL     1      -2.444  -1.149  -3.938  1.00  0.00    -0.316 OA  
ATOM     32  C21 UNL     1      -3.698  -0.451  -3.753  1.00  0.00     0.337 C   
ENDBRANCH  23  24
ENDBRANCH  20  23
ENDBRANCH  19  20
BRANCH  19  33
ATOM     33  C22 UNL     1       1.929   3.276   0.781  1.00  0.00     0.037 C   
ATOM     34  C23 UNL     1       2.588   2.241   1.701  1.00  0.00     0.014 C   
ATOM     35  C24 UNL     1       1.037   4.209   1.607  1.00  0.00     0.014 C   
ENDBRANCH  19  33
ENDBRANCH   3  19
TORSDOF 9
