REMARK SMILES Cc1ccc2nc(Cn3cc([C@H](CC(C)C)[NH2+]Cc4ccc5c(c4)OCO5)nn3)cn2c1
REMARK SMILES IDX 9 1 10 2 11 3 28 4 29 5 8 7 7 8 2 9 3 10 32 11 4 12 31 13
REMARK SMILES IDX 5 14 30 15 6 16 1 17 12 18 13 19 14 20 15 21 16 22 17 23
REMARK SMILES IDX 18 26 19 27 20 28 24 29 21 30 23 31 22 32 25 33 27 34 26 35
REMARK H PARENT 10 6 17 24 17 25
ROOT
ATOM     1   N2  UNL     1      -0.500   2.381   1.668  1.00  0.00    -0.206 N   
ATOM     2   C8  UNL     1       0.733   1.807   1.518  1.00  0.00     0.046 A   
ATOM     3   C9  UNL     1       1.171   2.278   0.303  1.00  0.00     0.127 A   
ATOM     4   N4  UNL     1       0.251   3.162  -0.199  1.00  0.00    -0.132 NA  
ATOM     5   N5  UNL     1      -0.766   3.221   0.646  1.00  0.00    -0.076 NA  
ATOM     6   H8  UNL     1       1.115   1.078   2.221  1.00  0.00     0.083 HD  
ENDROOT
BRANCH   1   7
ATOM     7   C7  UNL     1      -1.484   2.123   2.704  1.00  0.00     0.191 C   
BRANCH   7   8
ATOM     8   C6  UNL     1      -2.204   0.849   2.420  1.00  0.00     0.077 A   
ATOM     9   C2  UNL     1      -4.771  -2.788   1.651  1.00  0.00    -0.036 A   
ATOM     10  C3  UNL     1      -3.436  -3.383   1.579  1.00  0.00     0.008 A   
ATOM     11  C24 UNL     1      -4.868  -1.468   1.903  1.00  0.00     0.085 A   
ATOM     12  C4  UNL     1      -2.320  -2.648   1.752  1.00  0.00     0.045 A   
ATOM     13  N6  UNL     1      -3.708  -0.719   2.079  1.00  0.00    -0.266 N   
ATOM     14  C5  UNL     1      -2.427  -1.253   2.011  1.00  0.00     0.128 A   
ATOM     15  C23 UNL     1      -3.563   0.621   2.341  1.00  0.00     0.107 A   
ATOM     16  N1  UNL     1      -1.509  -0.328   2.206  1.00  0.00    -0.234 NA  
ATOM     17  C1  UNL     1      -5.952  -3.686   1.450  1.00  0.00     0.046 C   
ENDBRANCH   7   8
ENDBRANCH   1   7
BRANCH   3  18
ATOM     18  C10 UNL     1       2.350   1.886  -0.520  1.00  0.00     0.114 C   
BRANCH  18  19
ATOM     19  C11 UNL     1       3.432   2.984  -0.493  1.00  0.00     0.064 C   
BRANCH  19  20
ATOM     20  C12 UNL     1       4.734   2.683  -1.265  1.00  0.00    -0.012 C   
ATOM     21  C13 UNL     1       5.411   1.395  -0.798  1.00  0.00     0.007 C   
ATOM     22  C14 UNL     1       5.704   3.860  -1.114  1.00  0.00     0.007 C   
ENDBRANCH  19  20
ENDBRANCH  18  19
BRANCH  18  23
ATOM     23  N3  UNL     1       1.925   1.643  -1.950  1.00  0.00     0.249 N   
ATOM     24  H19 UNL     1       1.473   2.512  -2.267  1.00  0.00     0.199 HD  
ATOM     25  H20 UNL     1       2.740   1.481  -2.544  1.00  0.00     0.199 HD  
BRANCH  23  26
ATOM     26  C15 UNL     1       0.945   0.533  -2.167  1.00  0.00     0.164 C   
BRANCH  26  27
ATOM     27  C16 UNL     1       1.497  -0.820  -1.814  1.00  0.00    -0.002 A   
ATOM     28  C17 UNL     1       2.480  -1.429  -2.631  1.00  0.00     0.012 A   
ATOM     29  C21 UNL     1       1.060  -1.477  -0.649  1.00  0.00     0.045 A   
ATOM     30  C18 UNL     1       3.027  -2.670  -2.291  1.00  0.00     0.037 A   
ATOM     31  C20 UNL     1       1.620  -2.700  -0.344  1.00  0.00     0.109 A   
ATOM     32  C19 UNL     1       2.577  -3.279  -1.140  1.00  0.00     0.108 A   
ATOM     33  O1  UNL     1       1.317  -3.462   0.739  1.00  0.00    -0.316 OA  
ATOM     34  O2  UNL     1       2.998  -4.477  -0.659  1.00  0.00    -0.316 OA  
ATOM     35  C22 UNL     1       2.186  -4.598   0.528  1.00  0.00     0.337 C   
ENDBRANCH  26  27
ENDBRANCH  23  26
ENDBRANCH  18  23
ENDBRANCH   3  18
TORSDOF 8
