REMARK SMILES Cc1ccc(O)c([C@@H](CO)n2cc([C@@H]([NH2+]Cc3ccc4c(c3)OCO4)C(C)C)nn2)c1
REMARK SMILES IDX 11 1 12 2 13 3 29 4 30 5 8 7 7 8 2 9 3 10 31 11 4 12 5 13
REMARK SMILES IDX 1 14 6 15 9 17 10 18 14 20 15 21 16 24 17 25 18 26 22 27
REMARK SMILES IDX 19 28 21 29 20 30 23 31 25 32 24 33 26 34 27 35 28 36
REMARK H PARENT 12 6 6 16 10 19 15 22 15 23
ROOT
ATOM     1   N1  UNL     1       0.089  -1.875  -1.279  1.00  0.00    -0.202 N   
ATOM     2   C9  UNL     1       1.078  -0.999  -0.904  1.00  0.00     0.046 A   
ATOM     3   C10 UNL     1       0.403   0.018  -0.271  1.00  0.00     0.127 A   
ATOM     4   N3  UNL     1      -0.941  -0.257  -0.279  1.00  0.00    -0.132 NA  
ATOM     5   N4  UNL     1      -1.122  -1.416  -0.889  1.00  0.00    -0.075 NA  
ATOM     6   H11 UNL     1       2.121  -1.188  -1.118  1.00  0.00     0.083 HD  
ENDROOT
BRANCH   1   7
ATOM     7   C7  UNL     1       0.247  -3.134  -2.010  1.00  0.00     0.158 C   
BRANCH   7   8
ATOM     8   C6  UNL     1       0.425  -4.285  -1.033  1.00  0.00     0.007 A   
ATOM     9   C2  UNL     1      -0.459  -5.743   0.725  1.00  0.00    -0.051 A   
ATOM     10  C3  UNL     1       0.747  -6.451   0.736  1.00  0.00     0.006 A   
ATOM     11  C23 UNL     1      -0.616  -4.674  -0.169  1.00  0.00     0.012 A   
ATOM     12  C4  UNL     1       1.791  -6.079  -0.111  1.00  0.00     0.034 A   
ATOM     13  C5  UNL     1       1.626  -5.003  -0.981  1.00  0.00     0.076 A   
ATOM     14  C1  UNL     1      -1.592  -6.157   1.618  1.00  0.00     0.044 C   
BRANCH  13  15
ATOM     15  O1  UNL     1       2.650  -4.636  -1.808  1.00  0.00    -0.361 OA  
ATOM     16  H6  UNL     1       3.316  -5.347  -1.812  1.00  0.00     0.218 HD  
ENDBRANCH  13  15
ENDBRANCH   7   8
BRANCH   7  17
ATOM     17  C8  UNL     1      -0.885  -3.390  -3.017  1.00  0.00     0.186 C   
BRANCH  17  18
ATOM     18  O2  UNL     1      -0.816  -2.454  -4.098  1.00  0.00    -0.394 OA  
ATOM     19  H10 UNL     1      -1.587  -2.628  -4.667  1.00  0.00     0.210 HD  
ENDBRANCH  17  18
ENDBRANCH   7  17
ENDBRANCH   1   7
BRANCH   3  20
ATOM     20  C11 UNL     1       0.885   1.290   0.347  1.00  0.00     0.117 C   
BRANCH  20  21
ATOM     21  N2  UNL     1      -0.193   2.338   0.265  1.00  0.00     0.249 N   
ATOM     22  H13 UNL     1      -0.077   3.070   0.970  1.00  0.00     0.199 HD  
ATOM     23  H14 UNL     1      -1.082   1.861   0.481  1.00  0.00     0.199 HD  
BRANCH  21  24
ATOM     24  C12 UNL     1      -0.350   2.975  -1.072  1.00  0.00     0.164 C   
BRANCH  24  25
ATOM     25  C13 UNL     1      -1.518   3.920  -1.071  1.00  0.00    -0.002 A   
ATOM     26  C14 UNL     1      -1.339   5.283  -0.733  1.00  0.00     0.012 A   
ATOM     27  C18 UNL     1      -2.808   3.440  -1.354  1.00  0.00     0.045 A   
ATOM     28  C15 UNL     1      -2.429   6.160  -0.688  1.00  0.00     0.037 A   
ATOM     29  C17 UNL     1      -3.860   4.332  -1.305  1.00  0.00     0.109 A   
ATOM     30  C16 UNL     1      -3.676   5.654  -0.981  1.00  0.00     0.108 A   
ATOM     31  O3  UNL     1      -5.162   4.034  -1.549  1.00  0.00    -0.316 OA  
ATOM     32  O4  UNL     1      -4.839   6.354  -0.980  1.00  0.00    -0.316 OA  
ATOM     33  C19 UNL     1      -5.779   5.328  -1.369  1.00  0.00     0.337 C   
ENDBRANCH  24  25
ENDBRANCH  21  24
ENDBRANCH  20  21
BRANCH  20  34
ATOM     34  C20 UNL     1       1.341   1.095   1.817  1.00  0.00     0.037 C   
ATOM     35  C21 UNL     1       2.104   2.317   2.339  1.00  0.00     0.014 C   
ATOM     36  C22 UNL     1       0.206   0.743   2.785  1.00  0.00     0.014 C   
ENDBRANCH  20  34
ENDBRANCH   3  20
TORSDOF 10
