REMARK SMILES Cc1ccc(O)c([C@H](CO)n2cc([C@@H]([NH2+]Cc3ccc4c(c3)OCO4)C(C)C)nn2)c1
REMARK SMILES IDX 11 1 12 2 13 3 29 4 30 5 8 7 7 8 2 9 3 10 31 11 4 12 5 13
REMARK SMILES IDX 1 14 6 15 9 17 10 18 14 20 15 21 16 24 17 25 18 26 22 27
REMARK SMILES IDX 19 28 21 29 20 30 23 31 25 32 24 33 26 34 27 35 28 36
REMARK H PARENT 12 6 6 16 10 19 15 22 15 23
ROOT
ATOM     1   N1  UNL     1      -0.442   1.110   1.636  1.00  0.00    -0.202 N   
ATOM     2   C9  UNL     1      -1.014   2.155   0.959  1.00  0.00     0.046 A   
ATOM     3   C10 UNL     1      -1.807   1.549   0.013  1.00  0.00     0.127 A   
ATOM     4   N3  UNL     1      -1.676   0.187   0.119  1.00  0.00    -0.132 NA  
ATOM     5   N4  UNL     1      -0.833  -0.070   1.105  1.00  0.00    -0.075 NA  
ATOM     6   H11 UNL     1      -0.804   3.185   1.214  1.00  0.00     0.083 HD  
ENDROOT
BRANCH   1   7
ATOM     7   C7  UNL     1       0.491   1.179   2.762  1.00  0.00     0.158 C   
BRANCH   7   8
ATOM     8   C6  UNL     1       1.892   0.822   2.290  1.00  0.00     0.007 A   
ATOM     9   C2  UNL     1       3.620  -0.838   1.782  1.00  0.00    -0.051 A   
ATOM     10  C3  UNL     1       4.486   0.190   1.396  1.00  0.00     0.006 A   
ATOM     11  C23 UNL     1       2.324  -0.516   2.210  1.00  0.00     0.012 A   
ATOM     12  C4  UNL     1       4.072   1.520   1.450  1.00  0.00     0.034 A   
ATOM     13  C5  UNL     1       2.784   1.825   1.890  1.00  0.00     0.076 A   
ATOM     14  C1  UNL     1       4.052  -2.272   1.680  1.00  0.00     0.044 C   
BRANCH  13  15
ATOM     15  O1  UNL     1       2.372   3.128   1.922  1.00  0.00    -0.361 OA  
ATOM     16  H6  UNL     1       3.150   3.699   1.789  1.00  0.00     0.218 HD  
ENDBRANCH  13  15
ENDBRANCH   7   8
BRANCH   7  17
ATOM     17  C8  UNL     1      -0.008   0.360   3.966  1.00  0.00     0.186 C   
BRANCH  17  18
ATOM     18  O2  UNL     1      -1.141   0.999   4.564  1.00  0.00    -0.394 OA  
ATOM     19  H10 UNL     1      -1.393   0.464   5.340  1.00  0.00     0.210 HD  
ENDBRANCH  17  18
ENDBRANCH   7  17
ENDBRANCH   1   7
BRANCH   3  20
ATOM     20  C11 UNL     1      -2.662   2.118  -1.071  1.00  0.00     0.117 C   
BRANCH  20  21
ATOM     21  N2  UNL     1      -2.680   1.174  -2.249  1.00  0.00     0.249 N   
ATOM     22  H13 UNL     1      -3.480   1.349  -2.865  1.00  0.00     0.199 HD  
ATOM     23  H14 UNL     1      -2.809   0.227  -1.862  1.00  0.00     0.199 HD  
BRANCH  21  24
ATOM     24  C12 UNL     1      -1.429   1.145  -3.056  1.00  0.00     0.164 C   
BRANCH  24  25
ATOM     25  C13 UNL     1      -1.510   0.076  -4.108  1.00  0.00    -0.002 A   
ATOM     26  C14 UNL     1      -1.123  -1.250  -3.800  1.00  0.00     0.012 A   
ATOM     27  C18 UNL     1      -2.021   0.371  -5.383  1.00  0.00     0.045 A   
ATOM     28  C15 UNL     1      -1.231  -2.269  -4.753  1.00  0.00     0.037 A   
ATOM     29  C17 UNL     1      -2.115  -0.657  -6.298  1.00  0.00     0.109 A   
ATOM     30  C16 UNL     1      -1.731  -1.940  -5.993  1.00  0.00     0.108 A   
ATOM     31  O3  UNL     1      -2.586  -0.544  -7.567  1.00  0.00    -0.316 OA  
ATOM     32  O4  UNL     1      -1.908  -2.795  -7.033  1.00  0.00    -0.316 OA  
ATOM     33  C19 UNL     1      -2.429  -1.901  -8.040  1.00  0.00     0.337 C   
ENDBRANCH  24  25
ENDBRANCH  21  24
ENDBRANCH  20  21
BRANCH  20  34
ATOM     34  C20 UNL     1      -4.127   2.399  -0.646  1.00  0.00     0.037 C   
ATOM     35  C21 UNL     1      -4.207   3.507   0.410  1.00  0.00     0.014 C   
ATOM     36  C22 UNL     1      -4.888   1.161  -0.156  1.00  0.00     0.014 C   
ENDBRANCH  20  34
ENDBRANCH   3  20
TORSDOF 10
