REMARK SMILES OC[C@H](c1cccc(F)c1)n1cc([C@@H]([NH2+]Cc2ccc3c(c2)OCO3)C2CCCC2)nn1
REMARK SMILES IDX 11 1 12 2 13 3 31 4 32 5 3 7 2 8 1 9 4 11 5 12 10 13 6 14
REMARK SMILES IDX 8 15 7 16 9 17 14 18 15 19 16 22 17 23 18 24 22 25 19 26
REMARK SMILES IDX 21 27 20 28 23 29 25 30 24 31 26 32 27 33 30 34 28 35 29 36
REMARK H PARENT 12 6 1 10 15 20 15 21
ROOT
ATOM     1   N1  UNL     1       1.788   1.001   1.180  1.00  0.00    -0.202 N   
ATOM     2   C9  UNL     1       0.597   0.329   1.153  1.00  0.00     0.046 A   
ATOM     3   C10 UNL     1       0.663  -0.436   0.011  1.00  0.00     0.127 A   
ATOM     4   N3  UNL     1       1.852  -0.189  -0.627  1.00  0.00    -0.132 NA  
ATOM     5   N4  UNL     1       2.525   0.697   0.088  1.00  0.00    -0.075 NA  
ATOM     6   H9  UNL     1      -0.149   0.447   1.928  1.00  0.00     0.083 HD  
ENDROOT
BRANCH   1   7
ATOM     7   C2  UNL     1       2.295   1.950   2.172  1.00  0.00     0.155 C   
BRANCH   7   8
ATOM     8   C1  UNL     1       2.854   1.223   3.414  1.00  0.00     0.185 C   
BRANCH   8   9
ATOM     9   O1  UNL     1       1.901   0.365   4.036  1.00  0.00    -0.394 OA  
ATOM     10  H1  UNL     1       2.344  -0.050   4.800  1.00  0.00     0.210 HD  
ENDBRANCH   8   9
ENDBRANCH   7   8
BRANCH   7  11
ATOM     11  C3  UNL     1       1.287   3.069   2.424  1.00  0.00    -0.020 A   
ATOM     12  C4  UNL     1       1.287   4.198   1.577  1.00  0.00     0.006 A   
ATOM     13  C8  UNL     1       0.335   3.017   3.456  1.00  0.00     0.045 A   
ATOM     14  C5  UNL     1       0.379   5.245   1.770  1.00  0.00     0.003 A   
ATOM     15  C7  UNL     1      -0.571   4.062   3.633  1.00  0.00     0.123 A   
ATOM     16  C6  UNL     1      -0.555   5.176   2.804  1.00  0.00     0.039 A   
ATOM     17  F1  UNL     1      -1.474   3.986   4.618  1.00  0.00    -0.207 F   
ENDBRANCH   7  11
ENDBRANCH   1   7
BRANCH   3  18
ATOM     18  C11 UNL     1      -0.319  -1.387  -0.593  1.00  0.00     0.117 C   
BRANCH  18  19
ATOM     19  N2  UNL     1      -0.181  -1.363  -2.102  1.00  0.00     0.249 N   
ATOM     20  H11 UNL     1      -0.629  -2.179  -2.526  1.00  0.00     0.199 HD  
ATOM     21  H12 UNL     1       0.829  -1.435  -2.294  1.00  0.00     0.199 HD  
BRANCH  19  22
ATOM     22  C12 UNL     1      -0.678  -0.131  -2.786  1.00  0.00     0.164 C   
BRANCH  22  23
ATOM     23  C13 UNL     1      -2.179  -0.062  -2.823  1.00  0.00    -0.002 A   
ATOM     24  C14 UNL     1      -2.911  -0.872  -3.727  1.00  0.00     0.012 A   
ATOM     25  C18 UNL     1      -2.869   0.782  -1.933  1.00  0.00     0.045 A   
ATOM     26  C15 UNL     1      -4.310  -0.849  -3.740  1.00  0.00     0.037 A   
ATOM     27  C17 UNL     1      -4.248   0.776  -1.970  1.00  0.00     0.109 A   
ATOM     28  C16 UNL     1      -4.949  -0.018  -2.846  1.00  0.00     0.108 A   
ATOM     29  O2  UNL     1      -5.062   1.519  -1.175  1.00  0.00    -0.316 OA  
ATOM     30  O3  UNL     1      -6.293   0.126  -2.712  1.00  0.00    -0.316 OA  
ATOM     31  C19 UNL     1      -6.363   1.109  -1.653  1.00  0.00     0.337 C   
ENDBRANCH  22  23
ENDBRANCH  19  22
ENDBRANCH  18  19
BRANCH  18  32
ATOM     32  C20 UNL     1      -0.098  -2.835  -0.104  1.00  0.00     0.043 C   
ATOM     33  C21 UNL     1      -0.266  -2.997   1.413  1.00  0.00     0.010 C   
ATOM     34  C24 UNL     1      -1.110  -3.844  -0.655  1.00  0.00     0.010 C   
ATOM     35  C22 UNL     1      -0.658  -4.459   1.644  1.00  0.00     0.001 C   
ATOM     36  C23 UNL     1      -0.947  -5.045   0.267  1.00  0.00     0.001 C   
ENDBRANCH  18  32
ENDBRANCH   3  18
TORSDOF 9
