REMARK SMILES OC[C@@H](c1cccc(F)c1)n1cc([C@@H]([NH2+]Cc2ccc3c(c2)OCO3)C2CCCC2)nn1
REMARK SMILES IDX 11 1 12 2 13 3 31 4 32 5 3 7 2 8 1 9 4 11 5 12 10 13 6 14
REMARK SMILES IDX 8 15 7 16 9 17 14 18 15 19 16 22 17 23 18 24 22 25 19 26
REMARK SMILES IDX 21 27 20 28 23 29 25 30 24 31 26 32 27 33 30 34 28 35 29 36
REMARK H PARENT 12 6 1 10 15 20 15 21
ROOT
ATOM     1   N1  UNL     1      -3.169   0.743  -0.457  1.00  0.00    -0.202 N   
ATOM     2   C9  UNL     1      -1.846   0.690  -0.108  1.00  0.00     0.046 A   
ATOM     3   C10 UNL     1      -1.314  -0.261  -0.947  1.00  0.00     0.127 A   
ATOM     4   N3  UNL     1      -2.309  -0.772  -1.741  1.00  0.00    -0.132 NA  
ATOM     5   N4  UNL     1      -3.439  -0.155  -1.431  1.00  0.00    -0.075 NA  
ATOM     6   H9  UNL     1      -1.427   1.315   0.668  1.00  0.00     0.083 HD  
ENDROOT
BRANCH   1   7
ATOM     7   C2  UNL     1      -4.233   1.600   0.069  1.00  0.00     0.155 C   
BRANCH   7   8
ATOM     8   C1  UNL     1      -4.891   0.960   1.311  1.00  0.00     0.185 C   
BRANCH   8   9
ATOM     9   O1  UNL     1      -3.952   0.646   2.344  1.00  0.00    -0.394 OA  
ATOM     10  H1  UNL     1      -4.474   0.345   3.117  1.00  0.00     0.210 HD  
ENDBRANCH   8   9
ENDBRANCH   7   8
BRANCH   7  11
ATOM     11  C3  UNL     1      -3.753   3.042   0.205  1.00  0.00    -0.020 A   
ATOM     12  C4  UNL     1      -3.690   3.854  -0.947  1.00  0.00     0.006 A   
ATOM     13  C8  UNL     1      -3.334   3.591   1.426  1.00  0.00     0.045 A   
ATOM     14  C5  UNL     1      -3.232   5.174  -0.874  1.00  0.00     0.003 A   
ATOM     15  C7  UNL     1      -2.874   4.906   1.483  1.00  0.00     0.123 A   
ATOM     16  C6  UNL     1      -2.822   5.702   0.347  1.00  0.00     0.039 A   
ATOM     17  F1  UNL     1      -2.469   5.406   2.658  1.00  0.00    -0.207 F   
ENDBRANCH   7  11
ENDBRANCH   1   7
BRANCH   3  18
ATOM     18  C11 UNL     1       0.075  -0.794  -1.067  1.00  0.00     0.117 C   
BRANCH  18  19
ATOM     19  N2  UNL     1       0.030  -2.297  -1.234  1.00  0.00     0.249 N   
ATOM     20  H11 UNL     1       0.948  -2.656  -1.508  1.00  0.00     0.199 HD  
ATOM     21  H12 UNL     1      -0.619  -2.480  -2.013  1.00  0.00     0.199 HD  
BRANCH  19  22
ATOM     22  C12 UNL     1      -0.454  -3.073  -0.051  1.00  0.00     0.164 C   
BRANCH  22  23
ATOM     23  C13 UNL     1       0.513  -3.029   1.102  1.00  0.00    -0.002 A   
ATOM     24  C14 UNL     1       0.234  -2.234   2.244  1.00  0.00     0.012 A   
ATOM     25  C18 UNL     1       1.721  -3.750   1.038  1.00  0.00     0.045 A   
ATOM     26  C15 UNL     1       1.147  -2.150   3.303  1.00  0.00     0.037 A   
ATOM     27  C17 UNL     1       2.597  -3.646   2.099  1.00  0.00     0.109 A   
ATOM     28  C16 UNL     1       2.319  -2.869   3.200  1.00  0.00     0.108 A   
ATOM     29  O2  UNL     1       3.799  -4.275   2.195  1.00  0.00    -0.316 OA  
ATOM     30  O3  UNL     1       3.311  -2.908   4.128  1.00  0.00    -0.316 OA  
ATOM     31  C19 UNL     1       4.238  -3.826   3.501  1.00  0.00     0.337 C   
ENDBRANCH  22  23
ENDBRANCH  19  22
ENDBRANCH  18  19
BRANCH  18  32
ATOM     32  C20 UNL     1       0.811  -0.185  -2.279  1.00  0.00     0.043 C   
ATOM     33  C21 UNL     1       0.994   1.336  -2.160  1.00  0.00     0.010 C   
ATOM     34  C24 UNL     1       2.254  -0.662  -2.460  1.00  0.00     0.010 C   
ATOM     35  C22 UNL     1       2.163   1.682  -3.077  1.00  0.00     0.001 C   
ATOM     36  C23 UNL     1       2.845   0.361  -3.421  1.00  0.00     0.001 C   
ENDBRANCH  18  32
ENDBRANCH   3  18
TORSDOF 9
