REMARK SMILES CCc1ccc([C@H](O)Cn2cc([C@@H]([NH2+]Cc3ccc4c(c3)OCO4)C3CCCC3)nn2)s1
REMARK SMILES IDX 10 1 11 2 12 3 30 4 31 5 9 7 7 8 6 9 3 10 4 11 32 12 5 13
REMARK SMILES IDX 2 14 1 15 8 16 13 18 14 19 15 22 16 23 17 24 21 25 18 26
REMARK SMILES IDX 20 27 19 28 22 29 24 30 23 31 25 32 26 33 29 34 27 35 28 36
REMARK H PARENT 11 6 8 17 14 20 14 21
ROOT
ATOM     1   N1  UNL     1      -3.046   1.200  -1.401  1.00  0.00    -0.209 N   
ATOM     2   C9  UNL     1      -1.948   1.526  -2.147  1.00  0.00     0.045 A   
ATOM     3   C10 UNL     1      -0.977   1.795  -1.208  1.00  0.00     0.127 A   
ATOM     4   N3  UNL     1      -1.518   1.657   0.046  1.00  0.00    -0.132 NA  
ATOM     5   N4  UNL     1      -2.790   1.323  -0.086  1.00  0.00    -0.076 NA  
ATOM     6   H12 UNL     1      -1.954   1.504  -3.228  1.00  0.00     0.083 HD  
ENDROOT
BRANCH   1   7
ATOM     7   C8  UNL     1      -4.346   0.776  -1.862  1.00  0.00     0.171 C   
BRANCH   7   8
ATOM     8   C7  UNL     1      -4.706  -0.646  -1.430  1.00  0.00     0.170 C   
BRANCH   8   9
ATOM     9   C6  UNL     1      -3.791  -1.686  -2.017  1.00  0.00     0.020 A   
ATOM     10  C3  UNL     1      -2.124  -3.494  -2.297  1.00  0.00    -0.011 A   
ATOM     11  C4  UNL     1      -2.715  -3.136  -3.492  1.00  0.00     0.012 A   
ATOM     12  S1  UNL     1      -2.709  -2.543  -1.001  1.00  0.00    -0.096 S   
ATOM     13  C5  UNL     1      -3.678  -2.100  -3.330  1.00  0.00     0.014 A   
BRANCH  10  14
ATOM     14  C2  UNL     1      -1.118  -4.579  -2.054  1.00  0.00     0.039 C   
ATOM     15  C1  UNL     1       0.305  -4.046  -2.020  1.00  0.00     0.009 C   
ENDBRANCH  10  14
ENDBRANCH   8   9
BRANCH   8  16
ATOM     16  O1  UNL     1      -6.019  -0.946  -1.911  1.00  0.00    -0.386 OA  
ATOM     17  H9  UNL     1      -6.242  -1.835  -1.578  1.00  0.00     0.211 HD  
ENDBRANCH   8  16
ENDBRANCH   7   8
ENDBRANCH   1   7
BRANCH   3  18
ATOM     18  C11 UNL     1       0.467   2.170  -1.352  1.00  0.00     0.117 C   
BRANCH  18  19
ATOM     19  N2  UNL     1       1.068   2.437   0.003  1.00  0.00     0.249 N   
ATOM     20  H14 UNL     1       2.070   2.233   0.045  1.00  0.00     0.199 HD  
ATOM     21  H15 UNL     1       0.618   1.773   0.654  1.00  0.00     0.199 HD  
BRANCH  19  22
ATOM     22  C12 UNL     1       0.822   3.799   0.552  1.00  0.00     0.164 C   
BRANCH  22  23
ATOM     23  C13 UNL     1       1.312   3.885   1.970  1.00  0.00    -0.002 A   
ATOM     24  C14 UNL     1       2.618   4.347   2.257  1.00  0.00     0.012 A   
ATOM     25  C18 UNL     1       0.486   3.443   3.020  1.00  0.00     0.045 A   
ATOM     26  C15 UNL     1       3.096   4.380   3.572  1.00  0.00     0.037 A   
ATOM     27  C17 UNL     1       0.988   3.489   4.304  1.00  0.00     0.109 A   
ATOM     28  C16 UNL     1       2.256   3.943   4.573  1.00  0.00     0.108 A   
ATOM     29  O2  UNL     1       0.326   3.103   5.425  1.00  0.00    -0.316 OA  
ATOM     30  O3  UNL     1       2.553   3.900   5.899  1.00  0.00    -0.316 OA  
ATOM     31  C19 UNL     1       1.321   3.374   6.439  1.00  0.00     0.337 C   
ENDBRANCH  22  23
ENDBRANCH  19  22
ENDBRANCH  18  19
BRANCH  18  32
ATOM     32  C20 UNL     1       1.271   1.086  -2.096  1.00  0.00     0.043 C   
ATOM     33  C21 UNL     1       1.415  -0.264  -1.373  1.00  0.00     0.010 C   
ATOM     34  C24 UNL     1       2.706   1.481  -2.455  1.00  0.00     0.010 C   
ATOM     35  C22 UNL     1       2.791  -0.808  -1.764  1.00  0.00     0.001 C   
ATOM     36  C23 UNL     1       3.338   0.147  -2.816  1.00  0.00     0.001 C   
ENDBRANCH  18  32
ENDBRANCH   3  18
TORSDOF 10
