REMARK SMILES CCc1ccc([C@@H](O)Cn2cc([C@@H]([NH2+]Cc3ccc4c(c3)OCO4)C3CCCC3)nn2)s1
REMARK SMILES IDX 10 1 11 2 12 3 30 4 31 5 9 7 7 8 6 9 3 10 4 11 32 12 5 13
REMARK SMILES IDX 2 14 1 15 8 16 13 18 14 19 15 22 16 23 17 24 21 25 18 26
REMARK SMILES IDX 20 27 19 28 22 29 24 30 23 31 25 32 26 33 29 34 27 35 28 36
REMARK H PARENT 11 6 8 17 14 20 14 21
ROOT
ATOM     1   N1  UNL     1       3.705  -0.041   0.526  1.00  0.00    -0.209 N   
ATOM     2   C9  UNL     1       2.764  -0.004  -0.465  1.00  0.00     0.045 A   
ATOM     3   C10 UNL     1       2.057   1.149  -0.204  1.00  0.00     0.127 A   
ATOM     4   N3  UNL     1       2.582   1.760   0.905  1.00  0.00    -0.132 NA  
ATOM     5   N4  UNL     1       3.590   1.023   1.340  1.00  0.00    -0.076 NA  
ATOM     6   H12 UNL     1       2.675  -0.781  -1.212  1.00  0.00     0.083 HD  
ENDROOT
BRANCH   1   7
ATOM     7   C8  UNL     1       4.692  -1.064   0.782  1.00  0.00     0.171 C   
BRANCH   7   8
ATOM     8   C7  UNL     1       4.401  -1.867   2.051  1.00  0.00     0.170 C   
BRANCH   8   9
ATOM     9   C6  UNL     1       3.130  -2.672   1.947  1.00  0.00     0.020 A   
ATOM     10  C3  UNL     1       0.809  -3.510   2.230  1.00  0.00    -0.011 A   
ATOM     11  C4  UNL     1       1.560  -4.295   1.375  1.00  0.00     0.012 A   
ATOM     12  S1  UNL     1       1.731  -2.190   2.811  1.00  0.00    -0.096 S   
ATOM     13  C5  UNL     1       2.892  -3.819   1.215  1.00  0.00     0.014 A   
BRANCH  10  14
ATOM     14  C2  UNL     1      -0.622  -3.771   2.630  1.00  0.00     0.039 C   
ATOM     15  C1  UNL     1      -1.273  -2.740   3.544  1.00  0.00     0.009 C   
ENDBRANCH  10  14
ENDBRANCH   8   9
BRANCH   8  16
ATOM     16  O1  UNL     1       5.462  -2.806   2.244  1.00  0.00    -0.386 OA  
ATOM     17  H9  UNL     1       5.277  -3.279   3.075  1.00  0.00     0.211 HD  
ENDBRANCH   8  16
ENDBRANCH   7   8
ENDBRANCH   1   7
BRANCH   3  18
ATOM     18  C11 UNL     1       0.844   1.728  -0.855  1.00  0.00     0.117 C   
BRANCH  18  19
ATOM     19  N2  UNL     1      -0.137   2.167   0.212  1.00  0.00     0.249 N   
ATOM     20  H14 UNL     1       0.385   2.792   0.841  1.00  0.00     0.199 HD  
ATOM     21  H15 UNL     1      -0.898   2.714  -0.200  1.00  0.00     0.199 HD  
BRANCH  19  22
ATOM     22  C12 UNL     1      -0.730   1.081   1.050  1.00  0.00     0.164 C   
BRANCH  22  23
ATOM     23  C13 UNL     1      -1.647   0.180   0.270  1.00  0.00    -0.002 A   
ATOM     24  C14 UNL     1      -1.206  -1.098  -0.152  1.00  0.00     0.012 A   
ATOM     25  C18 UNL     1      -2.937   0.615  -0.078  1.00  0.00     0.045 A   
ATOM     26  C15 UNL     1      -2.035  -1.932  -0.909  1.00  0.00     0.037 A   
ATOM     27  C17 UNL     1      -3.729  -0.233  -0.826  1.00  0.00     0.109 A   
ATOM     28  C16 UNL     1      -3.291  -1.470  -1.230  1.00  0.00     0.108 A   
ATOM     29  O2  UNL     1      -4.993   0.035  -1.248  1.00  0.00    -0.316 OA  
ATOM     30  O3  UNL     1      -4.225  -2.137  -1.957  1.00  0.00    -0.316 OA  
ATOM     31  C19 UNL     1      -5.311  -1.187  -1.955  1.00  0.00     0.337 C   
ENDBRANCH  22  23
ENDBRANCH  19  22
ENDBRANCH  18  19
BRANCH  18  32
ATOM     32  C20 UNL     1       1.187   2.947  -1.735  1.00  0.00     0.043 C   
ATOM     33  C21 UNL     1       2.115   2.601  -2.905  1.00  0.00     0.010 C   
ATOM     34  C24 UNL     1      -0.015   3.556  -2.464  1.00  0.00     0.010 C   
ATOM     35  C22 UNL     1       1.939   3.742  -3.904  1.00  0.00     0.001 C   
ATOM     36  C23 UNL     1       0.607   4.406  -3.564  1.00  0.00     0.001 C   
ENDBRANCH  18  32
ENDBRANCH   3  18
TORSDOF 10
