REMARK SMILES CC(C)(C)[C@H]([NH2+]Cc1ccc2c(c1)OCO2)c1cn(Cc2cnc(C3CCC3)o2)nn1
REMARK SMILES IDX 17 1 18 2 19 3 30 4 31 5 5 7 2 8 1 9 3 10 4 11 6 12 7 15
REMARK SMILES IDX 8 16 9 17 13 18 10 19 12 20 11 21 14 22 16 23 15 24 20 25
REMARK SMILES IDX 21 26 22 27 29 28 23 29 24 30 25 31 26 32 28 33 27 34
REMARK H PARENT 18 6 6 13 6 14
ROOT
ATOM     1   C14 UNL     1      -2.115  -0.659  -1.003  1.00  0.00     0.127 A   
ATOM     2   C15 UNL     1      -1.948   0.656  -0.627  1.00  0.00     0.046 A   
ATOM     3   N2  UNL     1      -3.011   0.902   0.198  1.00  0.00    -0.206 N   
ATOM     4   N4  UNL     1      -3.804  -0.183   0.295  1.00  0.00    -0.076 NA  
ATOM     5   N5  UNL     1      -3.266  -1.145  -0.437  1.00  0.00    -0.132 NA  
ATOM     6   H20 UNL     1      -1.174   1.390  -0.808  1.00  0.00     0.083 HD  
ENDROOT
BRANCH   1   7
ATOM     7   C5  UNL     1      -1.212  -1.577  -1.766  1.00  0.00     0.120 C   
BRANCH   7   8
ATOM     8   C2  UNL     1      -1.621  -1.782  -3.268  1.00  0.00     0.010 C   
ATOM     9   C1  UNL     1      -2.984  -2.483  -3.434  1.00  0.00     0.017 C   
ATOM     10  C3  UNL     1      -1.689  -0.414  -3.986  1.00  0.00     0.017 C   
ATOM     11  C4  UNL     1      -0.554  -2.625  -4.004  1.00  0.00     0.017 C   
ENDBRANCH   7   8
BRANCH   7  12
ATOM     12  N1  UNL     1      -1.129  -2.914  -1.051  1.00  0.00     0.250 N   
ATOM     13  H11 UNL     1      -0.590  -3.585  -1.601  1.00  0.00     0.199 HD  
ATOM     14  H12 UNL     1      -2.091  -3.270  -0.981  1.00  0.00     0.199 HD  
BRANCH  12  15
ATOM     15  C6  UNL     1      -0.582  -2.898   0.345  1.00  0.00     0.164 C   
BRANCH  15  16
ATOM     16  C7  UNL     1       0.811  -2.341   0.437  1.00  0.00    -0.002 A   
ATOM     17  C8  UNL     1       1.912  -3.060  -0.086  1.00  0.00     0.012 A   
ATOM     18  C12 UNL     1       1.023  -1.077   1.019  1.00  0.00     0.045 A   
ATOM     19  C9  UNL     1       3.204  -2.526  -0.040  1.00  0.00     0.037 A   
ATOM     20  C11 UNL     1       2.308  -0.578   1.043  1.00  0.00     0.109 A   
ATOM     21  C10 UNL     1       3.368  -1.282   0.528  1.00  0.00     0.108 A   
ATOM     22  O1  UNL     1       2.681   0.626   1.549  1.00  0.00    -0.316 OA  
ATOM     23  O2  UNL     1       4.543  -0.612   0.650  1.00  0.00    -0.316 OA  
ATOM     24  C13 UNL     1       4.110   0.583   1.334  1.00  0.00     0.337 C   
ENDBRANCH  15  16
ENDBRANCH  12  15
ENDBRANCH   7  12
ENDBRANCH   1   7
BRANCH   3  25
ATOM     25  C16 UNL     1      -3.258   2.081   1.010  1.00  0.00     0.197 C   
BRANCH  25  26
ATOM     26  C17 UNL     1      -2.444   1.994   2.239  1.00  0.00     0.099 A   
ATOM     27  C18 UNL     1      -2.657   1.506   3.504  1.00  0.00     0.145 A   
ATOM     28  O3  UNL     1      -1.156   2.451   2.179  1.00  0.00    -0.296 OA  
ATOM     29  N3  UNL     1      -1.514   1.633   4.247  1.00  0.00    -0.234 NA  
ATOM     30  C19 UNL     1      -0.652   2.214   3.434  1.00  0.00     0.150 A   
BRANCH  30  31
ATOM     31  C20 UNL     1       0.802   2.595   3.841  1.00  0.00     0.063 C   
ATOM     32  C21 UNL     1       0.907   3.654   4.965  1.00  0.00     0.012 C   
ATOM     33  C23 UNL     1       1.508   1.616   4.811  1.00  0.00     0.012 C   
ATOM     34  C22 UNL     1       2.118   2.858   5.495  1.00  0.00     0.002 C   
ENDBRANCH  30  31
ENDBRANCH  25  26
ENDBRANCH   3  25
TORSDOF 8
