REMARK SMILES CCOc1cc(Cn2cc([C@@H]([NH2+]Cc3ccc4c(c3)OCO4)C(C)(C)C)nn2)ccc1O
REMARK SMILES IDX 8 1 9 2 10 3 27 4 28 5 7 7 6 8 4 9 5 10 31 11 30 12 29 13
REMARK SMILES IDX 3 14 2 15 1 16 32 17 11 19 12 20 13 23 14 24 15 25 19 26
REMARK SMILES IDX 16 27 18 28 17 29 20 30 22 31 21 32 23 33 24 34 25 35 26 36
REMARK H PARENT 9 6 32 18 12 21 12 22
ROOT
ATOM     1   N1  UNL     1       1.572   1.333   0.286  1.00  0.00    -0.208 N   
ATOM     2   C7  UNL     1       0.239   1.624   0.384  1.00  0.00     0.046 A   
ATOM     3   C8  UNL     1       0.008   1.664   1.742  1.00  0.00     0.127 A   
ATOM     4   N3  UNL     1       1.180   1.401   2.406  1.00  0.00    -0.132 NA  
ATOM     5   N4  UNL     1       2.131   1.221   1.508  1.00  0.00    -0.076 NA  
ATOM     6   H9  UNL     1      -0.397   1.732  -0.483  1.00  0.00     0.083 HD  
ENDROOT
BRANCH   1   7
ATOM     7   C6  UNL     1       2.368   1.136  -0.914  1.00  0.00     0.169 C   
BRANCH   7   8
ATOM     8   C5  UNL     1       2.376  -0.316  -1.326  1.00  0.00    -0.026 A   
ATOM     9   C3  UNL     1       1.582  -2.111  -2.765  1.00  0.00     0.105 A   
ATOM     10  C4  UNL     1       1.587  -0.762  -2.405  1.00  0.00     0.041 A   
ATOM     11  C24 UNL     1       2.364  -3.009  -2.031  1.00  0.00     0.102 A   
ATOM     12  C23 UNL     1       3.156  -2.589  -0.972  1.00  0.00     0.036 A   
ATOM     13  C22 UNL     1       3.163  -1.242  -0.620  1.00  0.00     0.008 A   
BRANCH   9  14
ATOM     14  O1  UNL     1       0.863  -2.675  -3.786  1.00  0.00    -0.344 OA  
BRANCH  14  15
ATOM     15  C2  UNL     1       0.137  -1.791  -4.637  1.00  0.00     0.164 C   
ATOM     16  C1  UNL     1      -0.540  -2.628  -5.709  1.00  0.00     0.035 C   
ENDBRANCH  14  15
ENDBRANCH   9  14
BRANCH  11  17
ATOM     17  O4  UNL     1       2.363  -4.341  -2.343  1.00  0.00    -0.358 OA  
ATOM     18  H31 UNL     1       1.762  -4.425  -3.108  1.00  0.00     0.218 HD  
ENDBRANCH  11  17
ENDBRANCH   7   8
ENDBRANCH   1   7
BRANCH   3  19
ATOM     19  C9  UNL     1      -1.252   1.814   2.539  1.00  0.00     0.120 C   
BRANCH  19  20
ATOM     20  N2  UNL     1      -1.206   0.787   3.660  1.00  0.00     0.250 N   
ATOM     21  H11 UNL     1      -1.377   1.218   4.571  1.00  0.00     0.199 HD  
ATOM     22  H12 UNL     1      -0.224   0.468   3.707  1.00  0.00     0.199 HD  
BRANCH  20  23
ATOM     23  C10 UNL     1      -2.079  -0.410   3.511  1.00  0.00     0.164 C   
BRANCH  23  24
ATOM     24  C11 UNL     1      -1.885  -1.168   2.225  1.00  0.00    -0.002 A   
ATOM     25  C12 UNL     1      -0.676  -1.857   1.963  1.00  0.00     0.012 A   
ATOM     26  C16 UNL     1      -2.910  -1.183   1.262  1.00  0.00     0.045 A   
ATOM     27  C13 UNL     1      -0.488  -2.546   0.759  1.00  0.00     0.037 A   
ATOM     28  C15 UNL     1      -2.692  -1.872   0.087  1.00  0.00     0.109 A   
ATOM     29  C14 UNL     1      -1.515  -2.535  -0.159  1.00  0.00     0.108 A   
ATOM     30  O2  UNL     1      -3.574  -1.978  -0.941  1.00  0.00    -0.316 OA  
ATOM     31  O3  UNL     1      -1.513  -3.149  -1.371  1.00  0.00    -0.316 OA  
ATOM     32  C17 UNL     1      -2.841  -2.841  -1.841  1.00  0.00     0.337 C   
ENDBRANCH  23  24
ENDBRANCH  20  23
ENDBRANCH  19  20
BRANCH  19  33
ATOM     33  C18 UNL     1      -1.496   3.253   3.108  1.00  0.00     0.010 C   
ATOM     34  C19 UNL     1      -2.852   3.304   3.849  1.00  0.00     0.017 C   
ATOM     35  C20 UNL     1      -1.575   4.268   1.944  1.00  0.00     0.017 C   
ATOM     36  C21 UNL     1      -0.392   3.719   4.078  1.00  0.00     0.017 C   
ENDBRANCH  19  33
ENDBRANCH   3  19
TORSDOF 10
