REMARK SMILES Cc1ccccc1[C@@H](CO)n1cc([C@H](CC(C)C)[NH2+]Cc2ccc3c(c2)OCO3)nn1
REMARK SMILES IDX 11 1 12 2 13 3 30 4 31 5 8 7 7 8 2 9 3 10 4 11 6 12 5 13
REMARK SMILES IDX 1 14 9 15 10 16 14 18 15 19 16 20 17 21 18 22 19 23 20 26
REMARK SMILES IDX 21 27 22 28 26 29 23 30 25 31 24 32 27 33 29 34 28 35
REMARK H PARENT 12 6 10 17 19 24 19 25
ROOT
ATOM     1   N1  UNL     1       1.005   1.906   0.343  1.00  0.00    -0.202 N   
ATOM     2   C10 UNL     1      -0.073   1.071   0.212  1.00  0.00     0.046 A   
ATOM     3   C11 UNL     1       0.019   0.224   1.291  1.00  0.00     0.127 A   
ATOM     4   N3  UNL     1       1.132   0.552   2.023  1.00  0.00    -0.132 NA  
ATOM     5   N4  UNL     1       1.728   1.576   1.435  1.00  0.00    -0.075 NA  
ATOM     6   H12 UNL     1      -0.783   1.172  -0.597  1.00  0.00     0.083 HD  
ENDROOT
BRANCH   1   7
ATOM     7   C8  UNL     1       1.405   3.042  -0.489  1.00  0.00     0.155 C   
BRANCH   7   8
ATOM     8   C7  UNL     1       1.341   2.687  -1.978  1.00  0.00    -0.020 A   
ATOM     9   C2  UNL     1       2.385   1.958  -2.603  1.00  0.00    -0.046 A   
ATOM     10  C3  UNL     1       2.286   1.634  -3.967  1.00  0.00     0.004 A   
ATOM     11  C4  UNL     1       1.173   2.009  -4.715  1.00  0.00     0.000 A   
ATOM     12  C6  UNL     1       0.225   3.049  -2.758  1.00  0.00     0.006 A   
ATOM     13  C5  UNL     1       0.143   2.715  -4.110  1.00  0.00     0.000 A   
ATOM     14  C1  UNL     1       3.627   1.526  -1.865  1.00  0.00     0.045 C   
ENDBRANCH   7   8
BRANCH   7  15
ATOM     15  C9  UNL     1       0.678   4.327  -0.032  1.00  0.00     0.185 C   
BRANCH  15  16
ATOM     16  O1  UNL     1      -0.745   4.194  -0.009  1.00  0.00    -0.394 OA  
ATOM     17  H11 UNL     1      -1.102   5.029   0.344  1.00  0.00     0.210 HD  
ENDBRANCH  15  16
ENDBRANCH   7  15
ENDBRANCH   1   7
BRANCH   3  18
ATOM     18  C12 UNL     1      -0.853  -0.909   1.718  1.00  0.00     0.114 C   
BRANCH  18  19
ATOM     19  C13 UNL     1      -2.287  -0.486   2.101  1.00  0.00     0.064 C   
BRANCH  19  20
ATOM     20  C14 UNL     1      -2.516   0.211   3.463  1.00  0.00    -0.012 C   
ATOM     21  C15 UNL     1      -1.819   1.565   3.589  1.00  0.00     0.007 C   
ATOM     22  C16 UNL     1      -4.023   0.398   3.681  1.00  0.00     0.007 C   
ENDBRANCH  19  20
ENDBRANCH  18  19
BRANCH  18  23
ATOM     23  N2  UNL     1      -0.246  -1.688   2.857  1.00  0.00     0.249 N   
ATOM     24  H23 UNL     1       0.119  -0.990   3.520  1.00  0.00     0.199 HD  
ATOM     25  H24 UNL     1      -0.966  -2.230   3.344  1.00  0.00     0.199 HD  
BRANCH  23  26
ATOM     26  C17 UNL     1       0.888  -2.591   2.502  1.00  0.00     0.164 C   
BRANCH  26  27
ATOM     27  C18 UNL     1       0.441  -3.827   1.772  1.00  0.00    -0.002 A   
ATOM     28  C19 UNL     1       0.700  -3.973   0.389  1.00  0.00     0.012 A   
ATOM     29  C23 UNL     1      -0.259  -4.838   2.453  1.00  0.00     0.045 A   
ATOM     30  C20 UNL     1       0.266  -5.105  -0.309  1.00  0.00     0.037 A   
ATOM     31  C22 UNL     1      -0.674  -5.940   1.735  1.00  0.00     0.109 A   
ATOM     32  C21 UNL     1      -0.421  -6.069   0.393  1.00  0.00     0.108 A   
ATOM     33  O2  UNL     1      -1.361  -6.998   2.240  1.00  0.00    -0.316 OA  
ATOM     34  O3  UNL     1      -0.918  -7.225  -0.117  1.00  0.00    -0.316 OA  
ATOM     35  C24 UNL     1      -1.504  -7.821   1.061  1.00  0.00     0.337 C   
ENDBRANCH  26  27
ENDBRANCH  23  26
ENDBRANCH  18  23
ENDBRANCH   3  18
TORSDOF 10
