REMARK SMILES Cc1ccccc1[C@H](CO)n1cc([C@H](CC(C)C)[NH2+]Cc2ccc3c(c2)OCO3)nn1
REMARK SMILES IDX 11 1 12 2 13 3 30 4 31 5 8 7 7 8 2 9 3 10 4 11 6 12 5 13
REMARK SMILES IDX 1 14 9 15 10 16 14 18 15 19 16 20 17 21 18 22 19 23 20 26
REMARK SMILES IDX 21 27 22 28 26 29 23 30 25 31 24 32 27 33 29 34 28 35
REMARK H PARENT 12 6 10 17 19 24 19 25
ROOT
ATOM     1   N1  UNL     1       0.376   2.685  -1.370  1.00  0.00    -0.202 N   
ATOM     2   C10 UNL     1       0.970   1.450  -1.368  1.00  0.00     0.046 A   
ATOM     3   C11 UNL     1       0.176   0.694  -0.537  1.00  0.00     0.127 A   
ATOM     4   N3  UNL     1      -0.836   1.479  -0.044  1.00  0.00    -0.132 NA  
ATOM     5   N4  UNL     1      -0.688   2.698  -0.537  1.00  0.00    -0.075 NA  
ATOM     6   H12 UNL     1       1.857   1.238  -1.950  1.00  0.00     0.083 HD  
ENDROOT
BRANCH   1   7
ATOM     7   C8  UNL     1       0.739   3.886  -2.123  1.00  0.00     0.155 C   
BRANCH   7   8
ATOM     8   C7  UNL     1       0.902   3.568  -3.613  1.00  0.00    -0.020 A   
ATOM     9   C2  UNL     1      -0.227   3.459  -4.467  1.00  0.00    -0.046 A   
ATOM     10  C3  UNL     1      -0.044   3.159  -5.829  1.00  0.00     0.004 A   
ATOM     11  C4  UNL     1       1.229   2.953  -6.353  1.00  0.00     0.000 A   
ATOM     12  C6  UNL     1       2.177   3.347  -4.170  1.00  0.00     0.006 A   
ATOM     13  C5  UNL     1       2.339   3.043  -5.523  1.00  0.00     0.000 A   
ATOM     14  C1  UNL     1      -1.639   3.674  -3.978  1.00  0.00     0.045 C   
ENDBRANCH   7   8
BRANCH   7  15
ATOM     15  C9  UNL     1       1.892   4.647  -1.429  1.00  0.00     0.185 C   
BRANCH  15  16
ATOM     16  O1  UNL     1       3.048   3.841  -1.196  1.00  0.00    -0.394 OA  
ATOM     17  H11 UNL     1       3.730   4.428  -0.818  1.00  0.00     0.210 HD  
ENDBRANCH  15  16
ENDBRANCH   7  15
ENDBRANCH   1   7
BRANCH   3  18
ATOM     18  C12 UNL     1       0.271  -0.742  -0.131  1.00  0.00     0.114 C   
BRANCH  18  19
ATOM     19  C13 UNL     1      -0.330  -1.653  -1.221  1.00  0.00     0.064 C   
BRANCH  19  20
ATOM     20  C14 UNL     1      -0.280  -3.174  -0.962  1.00  0.00    -0.012 C   
ATOM     21  C15 UNL     1       1.132  -3.676  -0.662  1.00  0.00     0.007 C   
ATOM     22  C16 UNL     1      -0.845  -3.920  -2.176  1.00  0.00     0.007 C   
ENDBRANCH  19  20
ENDBRANCH  18  19
BRANCH  18  23
ATOM     23  N2  UNL     1      -0.459  -0.968   1.165  1.00  0.00     0.249 N   
ATOM     24  H23 UNL     1      -1.367  -0.487   1.082  1.00  0.00     0.199 HD  
ATOM     25  H24 UNL     1      -0.667  -1.956   1.325  1.00  0.00     0.199 HD  
BRANCH  23  26
ATOM     26  C17 UNL     1       0.222  -0.426   2.376  1.00  0.00     0.164 C   
BRANCH  26  27
ATOM     27  C18 UNL     1      -0.625  -0.660   3.594  1.00  0.00    -0.002 A   
ATOM     28  C19 UNL     1      -1.620   0.278   3.958  1.00  0.00     0.012 A   
ATOM     29  C23 UNL     1      -0.479  -1.840   4.344  1.00  0.00     0.045 A   
ATOM     30  C20 UNL     1      -2.450   0.054   5.061  1.00  0.00     0.037 A   
ATOM     31  C22 UNL     1      -1.316  -2.030   5.424  1.00  0.00     0.109 A   
ATOM     32  C21 UNL     1      -2.273  -1.111   5.773  1.00  0.00     0.108 A   
ATOM     33  O2  UNL     1      -1.308  -3.112   6.249  1.00  0.00    -0.316 OA  
ATOM     34  O3  UNL     1      -2.986  -1.494   6.864  1.00  0.00    -0.316 OA  
ATOM     35  C24 UNL     1      -2.357  -2.756   7.177  1.00  0.00     0.337 C   
ENDBRANCH  26  27
ENDBRANCH  23  26
ENDBRANCH  18  23
ENDBRANCH   3  18
TORSDOF 10
