REMARK SMILES COc1cc(Cn2cc([C@@H]([NH2+]Cc3ccc4c(c3)OCO4)C3CCCC3)nn2)ccc1F
REMARK SMILES IDX 7 1 8 2 9 3 27 4 28 5 6 7 5 8 3 9 4 10 31 11 30 12 29 13
REMARK SMILES IDX 32 14 2 15 1 16 10 17 11 18 12 21 13 22 14 23 18 24 15 25
REMARK SMILES IDX 17 26 16 27 19 28 21 29 20 30 22 31 23 32 26 33 24 34 25 35
REMARK H PARENT 8 6 11 19 11 20
ROOT
ATOM     1   N1  UNL     1      -2.003   0.361   1.577  1.00  0.00    -0.208 N   
ATOM     2   C6  UNL     1      -0.833  -0.338   1.688  1.00  0.00     0.046 A   
ATOM     3   C7  UNL     1      -0.006   0.509   2.393  1.00  0.00     0.127 A   
ATOM     4   N3  UNL     1      -0.699   1.645   2.721  1.00  0.00    -0.132 NA  
ATOM     5   N4  UNL     1      -1.916   1.546   2.212  1.00  0.00    -0.076 NA  
ATOM     6   H7  UNL     1      -0.687  -1.304   1.226  1.00  0.00     0.083 HD  
ENDROOT
BRANCH   1   7
ATOM     7   C5  UNL     1      -3.186   0.011   0.807  1.00  0.00     0.169 C   
BRANCH   7   8
ATOM     8   C4  UNL     1      -2.954   0.286  -0.661  1.00  0.00    -0.026 A   
ATOM     9   C2  UNL     1      -2.326  -0.494  -2.887  1.00  0.00     0.111 A   
ATOM     10  C3  UNL     1      -2.590  -0.756  -1.538  1.00  0.00     0.042 A   
ATOM     11  C24 UNL     1      -2.418   0.822  -3.346  1.00  0.00     0.153 A   
ATOM     12  C23 UNL     1      -2.783   1.862  -2.497  1.00  0.00     0.042 A   
ATOM     13  C22 UNL     1      -3.052   1.596  -1.156  1.00  0.00     0.008 A   
ATOM     14  F1  UNL     1      -2.154   1.109  -4.630  1.00  0.00    -0.204 F   
BRANCH   9  15
ATOM     15  O1  UNL     1      -1.954  -1.425  -3.818  1.00  0.00    -0.346 OA  
ATOM     16  C1  UNL     1      -2.088  -2.794  -3.461  1.00  0.00     0.203 C   
ENDBRANCH   9  15
ENDBRANCH   7   8
ENDBRANCH   1   7
BRANCH   3  17
ATOM     17  C8  UNL     1       1.444   0.398   2.727  1.00  0.00     0.117 C   
BRANCH  17  18
ATOM     18  N2  UNL     1       2.167   1.696   2.421  1.00  0.00     0.249 N   
ATOM     19  H9  UNL     1       3.156   1.607   2.665  1.00  0.00     0.199 HD  
ATOM     20  H10 UNL     1       1.760   2.413   3.035  1.00  0.00     0.199 HD  
BRANCH  18  21
ATOM     21  C9  UNL     1       2.068   2.215   1.020  1.00  0.00     0.164 C   
BRANCH  21  22
ATOM     22  C10 UNL     1       2.504   1.227  -0.025  1.00  0.00    -0.002 A   
ATOM     23  C11 UNL     1       3.864   0.856  -0.151  1.00  0.00     0.012 A   
ATOM     24  C15 UNL     1       1.547   0.640  -0.871  1.00  0.00     0.045 A   
ATOM     25  C12 UNL     1       4.264  -0.096  -1.096  1.00  0.00     0.037 A   
ATOM     26  C14 UNL     1       1.973  -0.298  -1.785  1.00  0.00     0.109 A   
ATOM     27  C13 UNL     1       3.293  -0.656  -1.897  1.00  0.00     0.108 A   
ATOM     28  O2  UNL     1       1.177  -0.972  -2.654  1.00  0.00    -0.316 OA  
ATOM     29  O3  UNL     1       3.495  -1.591  -2.862  1.00  0.00    -0.316 OA  
ATOM     30  C16 UNL     1       2.158  -1.734  -3.390  1.00  0.00     0.337 C   
ENDBRANCH  21  22
ENDBRANCH  18  21
ENDBRANCH  17  18
BRANCH  17  31
ATOM     31  C17 UNL     1       1.663   0.064   4.217  1.00  0.00     0.043 C   
ATOM     32  C18 UNL     1       1.092  -1.299   4.622  1.00  0.00     0.010 C   
ATOM     33  C21 UNL     1       3.132  -0.086   4.625  1.00  0.00     0.010 C   
ATOM     34  C19 UNL     1       1.764  -1.609   5.954  1.00  0.00     0.001 C   
ATOM     35  C20 UNL     1       3.085  -0.845   5.948  1.00  0.00     0.001 C   
ENDBRANCH  17  31
ENDBRANCH   3  17
TORSDOF 8
