REMARK SMILES c1cnc2c(c1)CC[C@H]2n1cc([C@@H]([NH2+]Cc2ccc3c(c2)OCO3)C2CCCC2)nn1
REMARK SMILES IDX 13 1 12 2 10 3 11 4 31 5 30 6 9 8 1 9 2 10 6 11 3 12 5 13
REMARK SMILES IDX 4 14 7 15 8 16 14 17 15 20 16 21 17 22 21 23 18 24 20 25
REMARK SMILES IDX 19 26 22 27 24 28 23 29 25 30 26 31 29 32 27 33 28 34
REMARK H PARENT 11 7 14 18 14 19
ROOT
ATOM     1   C11 UNL     1       0.834   1.593   0.924  1.00  0.00     0.117 C   
ENDROOT
BRANCH   1   2
ATOM     2   C10 UNL     1      -0.058   0.524   1.456  1.00  0.00     0.127 A   
ATOM     3   N2  UNL     1      -1.338  -1.192   1.778  1.00  0.00    -0.203 N   
ATOM     4   C9  UNL     1      -0.305  -0.749   0.996  1.00  0.00     0.046 A   
ATOM     5   N5  UNL     1      -1.650  -0.271   2.714  1.00  0.00    -0.075 NA  
ATOM     6   N4  UNL     1      -0.880   0.787   2.520  1.00  0.00    -0.132 NA  
ATOM     7   H9  UNL     1       0.095  -1.332   0.177  1.00  0.00     0.083 HD  
BRANCH   3   8
ATOM     8   C8  UNL     1      -2.082  -2.432   1.710  1.00  0.00     0.149 C   
ATOM     9   C1  UNL     1      -2.728  -4.197  -2.058  1.00  0.00     0.020 A   
ATOM     10  C2  UNL     1      -2.842  -2.815  -1.915  1.00  0.00     0.111 A   
ATOM     11  C5  UNL     1      -2.383  -4.966  -0.949  1.00  0.00     0.007 A   
ATOM     12  N1  UNL     1      -2.632  -2.146  -0.755  1.00  0.00    -0.259 NA  
ATOM     13  C4  UNL     1      -2.164  -4.307   0.244  1.00  0.00    -0.024 A   
ATOM     14  C3  UNL     1      -2.301  -2.923   0.296  1.00  0.00     0.066 A   
ATOM     15  C6  UNL     1      -1.836  -4.877   1.585  1.00  0.00     0.040 C   
ATOM     16  C7  UNL     1      -1.337  -3.629   2.329  1.00  0.00     0.036 C   
ENDBRANCH   3   8
ENDBRANCH   1   2
BRANCH   1  17
ATOM     17  N3  UNL     1       0.074   2.901   0.828  1.00  0.00     0.249 N   
ATOM     18  H11 UNL     1       0.701   3.654   0.538  1.00  0.00     0.199 HD  
ATOM     19  H12 UNL     1      -0.255   3.117   1.779  1.00  0.00     0.199 HD  
BRANCH  17  20
ATOM     20  C12 UNL     1      -1.129   2.907  -0.063  1.00  0.00     0.164 C   
BRANCH  20  21
ATOM     21  C13 UNL     1      -0.815   2.570  -1.493  1.00  0.00    -0.002 A   
ATOM     22  C14 UNL     1      -1.245   1.339  -2.044  1.00  0.00     0.012 A   
ATOM     23  C18 UNL     1      -0.067   3.458  -2.286  1.00  0.00     0.045 A   
ATOM     24  C15 UNL     1      -0.928   0.989  -3.361  1.00  0.00     0.037 A   
ATOM     25  C17 UNL     1       0.228   3.082  -3.580  1.00  0.00     0.109 A   
ATOM     26  C16 UNL     1      -0.189   1.882  -4.102  1.00  0.00     0.108 A   
ATOM     27  O1  UNL     1       0.946   3.815  -4.470  1.00  0.00    -0.316 OA  
ATOM     28  O2  UNL     1       0.212   1.710  -5.388  1.00  0.00    -0.316 OA  
ATOM     29  C19 UNL     1       0.908   2.952  -5.630  1.00  0.00     0.337 C   
ENDBRANCH  20  21
ENDBRANCH  17  20
ENDBRANCH   1  17
BRANCH   1  30
ATOM     30  C20 UNL     1       2.068   1.813   1.821  1.00  0.00     0.043 C   
ATOM     31  C21 UNL     1       3.032   2.894   1.317  1.00  0.00     0.010 C   
ATOM     32  C24 UNL     1       2.982   0.587   1.906  1.00  0.00     0.010 C   
ATOM     33  C22 UNL     1       4.385   2.561   1.944  1.00  0.00     0.001 C   
ATOM     34  C23 UNL     1       4.267   1.144   2.497  1.00  0.00     0.001 C   
ENDBRANCH   1  30
TORSDOF 6
