REMARK SMILES c1cnc2c(c1)CC[C@@H]2n1cc([C@@H]([NH2+]Cc2ccc3c(c2)OCO3)C2CCCC2)nn1
REMARK SMILES IDX 13 1 12 2 10 3 11 4 31 5 30 6 9 8 1 9 2 10 6 11 3 12 5 13
REMARK SMILES IDX 4 14 7 15 8 16 14 17 15 20 16 21 17 22 21 23 18 24 20 25
REMARK SMILES IDX 19 26 22 27 24 28 23 29 25 30 26 31 29 32 27 33 28 34
REMARK H PARENT 11 7 14 18 14 19
ROOT
ATOM     1   C11 UNL     1       0.059   0.384  -2.183  1.00  0.00     0.117 C   
ENDROOT
BRANCH   1   2
ATOM     2   C10 UNL     1       0.297  -0.896  -1.459  1.00  0.00     0.127 A   
ATOM     3   N2  UNL     1       0.458  -2.510  -0.023  1.00  0.00    -0.203 N   
ATOM     4   C9  UNL     1      -0.307  -1.417  -0.339  1.00  0.00     0.046 A   
ATOM     5   N5  UNL     1       1.418  -2.695  -0.952  1.00  0.00    -0.075 NA  
ATOM     6   N4  UNL     1       1.336  -1.708  -1.830  1.00  0.00    -0.132 NA  
ATOM     7   H9  UNL     1      -1.122  -1.086   0.292  1.00  0.00     0.083 HD  
BRANCH   3   8
ATOM     8   C8  UNL     1       0.319  -3.367   1.133  1.00  0.00     0.149 C   
ATOM     9   C1  UNL     1       1.570  -1.833   4.855  1.00  0.00     0.020 A   
ATOM     10  C2  UNL     1       0.957  -0.988   3.931  1.00  0.00     0.111 A   
ATOM     11  C5  UNL     1       1.775  -3.169   4.517  1.00  0.00     0.007 A   
ATOM     12  N1  UNL     1       0.540  -1.377   2.701  1.00  0.00    -0.259 NA  
ATOM     13  C4  UNL     1       1.364  -3.586   3.267  1.00  0.00    -0.024 A   
ATOM     14  C3  UNL     1       0.764  -2.673   2.405  1.00  0.00     0.066 A   
ATOM     15  C6  UNL     1       1.409  -4.953   2.669  1.00  0.00     0.040 C   
ATOM     16  C7  UNL     1       1.201  -4.634   1.180  1.00  0.00     0.036 C   
ENDBRANCH   3   8
ENDBRANCH   1   2
BRANCH   1  17
ATOM     17  N3  UNL     1       1.379   1.088  -2.430  1.00  0.00     0.249 N   
ATOM     18  H11 UNL     1       1.238   1.915  -3.014  1.00  0.00     0.199 HD  
ATOM     19  H12 UNL     1       1.962   0.427  -2.960  1.00  0.00     0.199 HD  
BRANCH  17  20
ATOM     20  C12 UNL     1       2.158   1.481  -1.214  1.00  0.00     0.164 C   
BRANCH  20  21
ATOM     21  C13 UNL     1       1.434   2.456  -0.328  1.00  0.00    -0.002 A   
ATOM     22  C14 UNL     1       1.223   3.792  -0.747  1.00  0.00     0.012 A   
ATOM     23  C18 UNL     1       0.940   2.036   0.920  1.00  0.00     0.045 A   
ATOM     24  C15 UNL     1       0.523   4.695   0.061  1.00  0.00     0.037 A   
ATOM     25  C17 UNL     1       0.257   2.951   1.693  1.00  0.00     0.109 A   
ATOM     26  C16 UNL     1       0.051   4.243   1.274  1.00  0.00     0.108 A   
ATOM     27  O1  UNL     1      -0.282   2.711   2.917  1.00  0.00    -0.316 OA  
ATOM     28  O2  UNL     1      -0.645   4.977   2.179  1.00  0.00    -0.316 OA  
ATOM     29  C19 UNL     1      -0.841   4.006   3.230  1.00  0.00     0.337 C   
ENDBRANCH  20  21
ENDBRANCH  17  20
ENDBRANCH   1  17
BRANCH   1  30
ATOM     30  C20 UNL     1      -0.631   0.161  -3.543  1.00  0.00     0.043 C   
ATOM     31  C21 UNL     1      -2.027  -0.459  -3.422  1.00  0.00     0.010 C   
ATOM     32  C24 UNL     1      -0.912   1.450  -4.327  1.00  0.00     0.010 C   
ATOM     33  C22 UNL     1      -2.629  -0.225  -4.799  1.00  0.00     0.001 C   
ATOM     34  C23 UNL     1      -2.115   1.146  -5.222  1.00  0.00     0.001 C   
ENDBRANCH   1  30
TORSDOF 6
