REMARK SMILES c1cc(Cn2cc([C@@H]([NH2+]Cc3ccc4c(c3)OCO4)C3CCCC3)nn2)n[nH]1
REMARK SMILES IDX 5 1 6 2 7 3 25 4 26 5 4 7 3 8 1 9 2 10 28 11 27 12 8 14 9 15
REMARK SMILES IDX 10 18 11 19 12 20 16 21 13 22 15 23 14 24 17 25 19 26 18 27
REMARK SMILES IDX 20 28 21 29 24 30 22 31 23 32
REMARK H PARENT 6 6 28 13 9 16 9 17
ROOT
ATOM     1   N1  UNL     1       1.548   1.352   2.103  1.00  0.00    -0.206 N   
ATOM     2   C5  UNL     1       0.547   1.266   1.173  1.00  0.00     0.046 A   
ATOM     3   C6  UNL     1       0.171  -0.057   1.211  1.00  0.00     0.127 A   
ATOM     4   N3  UNL     1       0.903  -0.708   2.169  1.00  0.00    -0.132 NA  
ATOM     5   N4  UNL     1       1.742   0.163   2.708  1.00  0.00    -0.076 NA  
ATOM     6   H5  UNL     1       0.257   2.111   0.562  1.00  0.00     0.083 HD  
ENDROOT
BRANCH   1   7
ATOM     7   C4  UNL     1       2.365   2.505   2.433  1.00  0.00     0.191 C   
BRANCH   7   8
ATOM     8   C3  UNL     1       3.487   2.631   1.458  1.00  0.00     0.079 A   
ATOM     9   C1  UNL     1       5.478   2.665   0.493  1.00  0.00     0.094 A   
ATOM     10  C2  UNL     1       4.856   2.345   1.675  1.00  0.00     0.044 A   
ATOM     11  N6  UNL     1       4.500   3.119  -0.340  1.00  0.00    -0.246 N   
ATOM     12  N5  UNL     1       3.270   3.070   0.206  1.00  0.00    -0.188 NA  
ATOM     13  H25 UNL     1       4.600   3.474  -1.287  1.00  0.00     0.175 HD  
ENDBRANCH   7   8
ENDBRANCH   1   7
BRANCH   3  14
ATOM     14  C7  UNL     1      -0.770  -0.825   0.346  1.00  0.00     0.117 C   
BRANCH  14  15
ATOM     15  N2  UNL     1      -0.123  -2.122  -0.097  1.00  0.00     0.249 N   
ATOM     16  H7  UNL     1      -0.791  -2.685  -0.630  1.00  0.00     0.199 HD  
ATOM     17  H8  UNL     1       0.106  -2.640   0.761  1.00  0.00     0.199 HD  
BRANCH  15  18
ATOM     18  C8  UNL     1       1.141  -2.000  -0.888  1.00  0.00     0.164 C   
BRANCH  18  19
ATOM     19  C9  UNL     1       0.966  -1.250  -2.179  1.00  0.00    -0.002 A   
ATOM     20  C10 UNL     1       1.498   0.055  -2.322  1.00  0.00     0.012 A   
ATOM     21  C14 UNL     1       0.246  -1.823  -3.241  1.00  0.00     0.045 A   
ATOM     22  C11 UNL     1       1.307   0.785  -3.499  1.00  0.00     0.037 A   
ATOM     23  C13 UNL     1       0.079  -1.077  -4.389  1.00  0.00     0.109 A   
ATOM     24  C12 UNL     1       0.591   0.191  -4.515  1.00  0.00     0.108 A   
ATOM     25  O1  UNL     1      -0.593  -1.479  -5.500  1.00  0.00    -0.316 OA  
ATOM     26  O2  UNL     1       0.307   0.747  -5.721  1.00  0.00    -0.316 OA  
ATOM     27  C15 UNL     1      -0.422  -0.326  -6.355  1.00  0.00     0.337 C   
ENDBRANCH  18  19
ENDBRANCH  15  18
ENDBRANCH  14  15
BRANCH  14  28
ATOM     28  C16 UNL     1      -2.081  -1.164   1.083  1.00  0.00     0.043 C   
ATOM     29  C17 UNL     1      -3.104  -1.926   0.235  1.00  0.00     0.010 C   
ATOM     30  C20 UNL     1      -2.884   0.077   1.490  1.00  0.00     0.010 C   
ATOM     31  C18 UNL     1      -4.428  -1.734   0.968  1.00  0.00     0.001 C   
ATOM     32  C19 UNL     1      -4.277  -0.459   1.794  1.00  0.00     0.001 C   
ENDBRANCH  14  28
ENDBRANCH   3  14
TORSDOF 7
