REMARK SMILES Cc1ccc(N([O-])[O-])c(-n2cc([C@H](CC(C)C)[NH2+]Cc3ccc4c(c3)OCO4)nn2)c1
REMARK SMILES IDX 10 1 11 2 12 3 29 4 30 5 9 6 2 7 3 8 31 9 4 10 5 11 1 12
REMARK SMILES IDX 6 13 7 14 8 15 13 16 14 17 15 18 16 19 17 20 18 21 19 24
REMARK SMILES IDX 20 25 21 26 25 27 22 28 24 29 23 30 26 31 28 32 27 33
REMARK H PARENT 18 22 18 23
ROOT
ATOM     1   N2  UNL     1      -0.715  -0.017   0.875  1.00  0.00    -0.178 N   
ATOM     2   C7  UNL     1      -0.368   0.174  -0.449  1.00  0.00     0.135 A   
ATOM     3   C8  UNL     1       0.800  -0.532  -0.632  1.00  0.00     0.127 A   
ATOM     4   N4  UNL     1       1.150  -1.129   0.541  1.00  0.00    -0.131 NA  
ATOM     5   N5  UNL     1       0.238  -0.812   1.443  1.00  0.00    -0.071 NA  
ENDROOT
BRANCH   1   6
ATOM     6   C6  UNL     1      -1.790   0.491   1.665  1.00  0.00     0.086 A   
ATOM     7   C2  UNL     1      -2.777   0.689   3.912  1.00  0.00    -0.049 A   
ATOM     8   C3  UNL     1      -3.802   1.488   3.400  1.00  0.00     0.006 A   
ATOM     9   C22 UNL     1      -1.776   0.208   3.049  1.00  0.00     0.031 A   
ATOM     10  C4  UNL     1      -3.851   1.773   2.039  1.00  0.00     0.033 A   
ATOM     11  C5  UNL     1      -2.854   1.268   1.187  1.00  0.00     0.141 A   
ATOM     12  C1  UNL     1      -2.713   0.397   5.385  1.00  0.00     0.044 C   
BRANCH  11  13
ATOM     13  N1  UNL     1      -3.029   1.574  -0.209  1.00  0.00     0.094 N   
ATOM     14  O1  UNL     1      -2.696   2.705  -0.580  1.00  0.00    -0.138 OA  
ATOM     15  O2  UNL     1      -3.451   0.665  -0.934  1.00  0.00    -0.138 OA  
ENDBRANCH  11  13
ENDBRANCH   1   6
BRANCH   3  16
ATOM     16  C9  UNL     1       1.720  -0.625  -1.809  1.00  0.00     0.114 C   
BRANCH  16  17
ATOM     17  C10 UNL     1       1.610  -2.008  -2.481  1.00  0.00     0.064 C   
BRANCH  17  18
ATOM     18  C11 UNL     1       2.419  -2.199  -3.783  1.00  0.00    -0.012 C   
ATOM     19  C12 UNL     1       2.042  -1.185  -4.864  1.00  0.00     0.007 C   
ATOM     20  C13 UNL     1       2.205  -3.620  -4.314  1.00  0.00     0.007 C   
ENDBRANCH  17  18
ENDBRANCH  16  17
BRANCH  16  21
ATOM     21  N3  UNL     1       3.144  -0.402  -1.345  1.00  0.00     0.249 N   
ATOM     22  H17 UNL     1       3.182  -0.737  -0.370  1.00  0.00     0.199 HD  
ATOM     23  H18 UNL     1       3.795  -0.996  -1.863  1.00  0.00     0.199 HD  
BRANCH  21  24
ATOM     24  C14 UNL     1       3.646   1.004  -1.386  1.00  0.00     0.164 C   
BRANCH  24  25
ATOM     25  C15 UNL     1       2.821   1.977  -0.592  1.00  0.00    -0.002 A   
ATOM     26  C16 UNL     1       2.825   1.939   0.823  1.00  0.00     0.012 A   
ATOM     27  C20 UNL     1       1.988   2.896  -1.254  1.00  0.00     0.045 A   
ATOM     28  C17 UNL     1       1.991   2.781   1.569  1.00  0.00     0.037 A   
ATOM     29  C19 UNL     1       1.179   3.711  -0.490  1.00  0.00     0.109 A   
ATOM     30  C18 UNL     1       1.174   3.650   0.882  1.00  0.00     0.108 A   
ATOM     31  O3  UNL     1       0.303   4.629  -0.974  1.00  0.00    -0.316 OA  
ATOM     32  O4  UNL     1       0.286   4.516   1.434  1.00  0.00    -0.316 OA  
ATOM     33  C21 UNL     1      -0.239   5.165   0.254  1.00  0.00     0.337 C   
ENDBRANCH  24  25
ENDBRANCH  21  24
ENDBRANCH  16  21
ENDBRANCH   3  16
TORSDOF 8
