REMARK SMILES CC(C)[C@H]([NH2+]Cc1ccc2c(c1)OCO2)c1cn(Cc2cccn2C)nn1
REMARK SMILES IDX 16 1 17 2 18 3 26 4 27 5 4 7 2 8 1 9 3 10 5 11 6 14 7 15
REMARK SMILES IDX 8 16 12 17 9 18 11 19 10 20 13 21 15 22 14 23 19 24 20 25
REMARK SMILES IDX 21 26 24 27 22 28 23 29 25 30
REMARK H PARENT 17 6 5 12 5 13
ROOT
ATOM     1   C13 UNL     1      -0.196  -0.060   0.170  1.00  0.00     0.127 A   
ATOM     2   C14 UNL     1      -0.685  -0.241   1.444  1.00  0.00     0.046 A   
ATOM     3   N2  UNL     1      -0.054   0.724   2.183  1.00  0.00    -0.206 N   
ATOM     4   N4  UNL     1       0.731   1.490   1.399  1.00  0.00    -0.076 NA  
ATOM     5   N5  UNL     1       0.668   1.008   0.169  1.00  0.00    -0.132 NA  
ATOM     6   H18 UNL     1      -1.369  -0.951   1.889  1.00  0.00     0.083 HD  
ENDROOT
BRANCH   1   7
ATOM     7   C4  UNL     1      -0.466  -0.796  -1.105  1.00  0.00     0.117 C   
BRANCH   7   8
ATOM     8   C2  UNL     1       0.312  -2.136  -1.181  1.00  0.00     0.037 C   
ATOM     9   C1  UNL     1      -0.201  -3.026  -2.319  1.00  0.00     0.014 C   
ATOM     10  C3  UNL     1       1.831  -1.966  -1.301  1.00  0.00     0.014 C   
ENDBRANCH   7   8
BRANCH   7  11
ATOM     11  N1  UNL     1      -0.130   0.068  -2.290  1.00  0.00     0.249 N   
ATOM     12  H9  UNL     1       0.772   0.521  -2.078  1.00  0.00     0.199 HD  
ATOM     13  H10 UNL     1       0.018  -0.481  -3.141  1.00  0.00     0.199 HD  
BRANCH  11  14
ATOM     14  C5  UNL     1      -1.104   1.157  -2.581  1.00  0.00     0.164 C   
BRANCH  14  15
ATOM     15  C6  UNL     1      -0.601   2.022  -3.702  1.00  0.00    -0.002 A   
ATOM     16  C7  UNL     1       0.288   3.090  -3.428  1.00  0.00     0.012 A   
ATOM     17  C11 UNL     1      -0.961   1.743  -5.031  1.00  0.00     0.045 A   
ATOM     18  C8  UNL     1       0.803   3.879  -4.462  1.00  0.00     0.037 A   
ATOM     19  C10 UNL     1      -0.436   2.541  -6.026  1.00  0.00     0.109 A   
ATOM     20  C9  UNL     1       0.422   3.578  -5.751  1.00  0.00     0.108 A   
ATOM     21  O1  UNL     1      -0.683   2.410  -7.356  1.00  0.00    -0.316 OA  
ATOM     22  O2  UNL     1       0.823   4.231  -6.873  1.00  0.00    -0.316 OA  
ATOM     23  C12 UNL     1       0.105   3.500  -7.890  1.00  0.00     0.337 C   
ENDBRANCH  14  15
ENDBRANCH  11  14
ENDBRANCH   7  11
ENDBRANCH   1   7
BRANCH   3  24
ATOM     24  C15 UNL     1      -0.168   0.987   3.610  1.00  0.00     0.185 C   
BRANCH  24  25
ATOM     25  C16 UNL     1       0.420  -0.134   4.406  1.00  0.00     0.029 A   
ATOM     26  C17 UNL     1      -0.224  -1.171   5.062  1.00  0.00     0.022 A   
ATOM     27  N3  UNL     1       1.774  -0.298   4.619  1.00  0.00    -0.312 N   
ATOM     28  C18 UNL     1       0.762  -1.986   5.660  1.00  0.00     0.017 A   
ATOM     29  C19 UNL     1       1.984  -1.428   5.367  1.00  0.00     0.074 A   
ATOM     30  C20 UNL     1       2.835   0.565   4.145  1.00  0.00     0.135 C   
ENDBRANCH  24  25
ENDBRANCH   3  24
TORSDOF 7
