REMARK SMILES COc1ccc(C)cc1CCn1cc([C@@H]([NH2+]Cc2ccc3c(c2)OCO3)C(C)(C)C)nn1
REMARK SMILES IDX 12 1 13 2 14 3 31 4 32 5 11 7 10 8 9 9 3 10 4 11 5 12 8 13
REMARK SMILES IDX 6 14 7 15 2 16 1 17 15 18 16 19 17 22 18 23 19 24 23 25
REMARK SMILES IDX 20 26 22 27 21 28 24 29 26 30 25 31 27 32 28 33 29 34 30 35
REMARK H PARENT 13 6 16 20 16 21
ROOT
ATOM     1   N1  UNL     1       2.813   1.138   1.266  1.00  0.00    -0.212 N   
ATOM     2   C11 UNL     1       1.974   1.858   0.463  1.00  0.00     0.045 A   
ATOM     3   C12 UNL     1       0.741   1.706   1.054  1.00  0.00     0.127 A   
ATOM     4   N3  UNL     1       0.874   0.939   2.185  1.00  0.00    -0.132 NA  
ATOM     5   N4  UNL     1       2.148   0.600   2.304  1.00  0.00    -0.076 NA  
ATOM     6   H14 UNL     1       2.316   2.338  -0.444  1.00  0.00     0.083 HD  
ENDROOT
BRANCH   1   7
ATOM     7   C10 UNL     1       4.210   0.830   1.038  1.00  0.00     0.139 C   
BRANCH   7   8
ATOM     8   C9  UNL     1       4.422  -0.595   0.521  1.00  0.00     0.059 C   
BRANCH   8   9
ATOM     9   C8  UNL     1       3.617  -0.935  -0.719  1.00  0.00    -0.016 A   
ATOM     10  C2  UNL     1       3.880  -0.328  -1.959  1.00  0.00     0.078 A   
ATOM     11  C3  UNL     1       3.098  -0.657  -3.070  1.00  0.00     0.034 A   
ATOM     12  C4  UNL     1       2.073  -1.602  -2.960  1.00  0.00     0.006 A   
ATOM     13  C7  UNL     1       2.584  -1.887  -0.624  1.00  0.00     0.010 A   
ATOM     14  C5  UNL     1       1.804  -2.220  -1.736  1.00  0.00    -0.051 A   
ATOM     15  C6  UNL     1       0.755  -3.290  -1.639  1.00  0.00     0.044 C   
BRANCH  10  16
ATOM     16  O1  UNL     1       4.893   0.594  -1.977  1.00  0.00    -0.349 OA  
ATOM     17  C1  UNL     1       5.486   0.859  -3.246  1.00  0.00     0.203 C   
ENDBRANCH  10  16
ENDBRANCH   8   9
ENDBRANCH   7   8
ENDBRANCH   1   7
BRANCH   3  18
ATOM     18  C13 UNL     1      -0.625   2.108   0.592  1.00  0.00     0.120 C   
BRANCH  18  19
ATOM     19  N2  UNL     1      -1.567   0.955   0.852  1.00  0.00     0.250 N   
ATOM     20  H16 UNL     1      -2.551   1.231   0.802  1.00  0.00     0.199 HD  
ATOM     21  H17 UNL     1      -1.397   0.652   1.822  1.00  0.00     0.199 HD  
BRANCH  19  22
ATOM     22  C14 UNL     1      -1.357  -0.238  -0.019  1.00  0.00     0.164 C   
BRANCH  22  23
ATOM     23  C15 UNL     1      -2.300  -1.342   0.369  1.00  0.00    -0.002 A   
ATOM     24  C16 UNL     1      -1.962  -2.223   1.425  1.00  0.00     0.012 A   
ATOM     25  C20 UNL     1      -3.542  -1.473  -0.274  1.00  0.00     0.045 A   
ATOM     26  C17 UNL     1      -2.843  -3.232   1.828  1.00  0.00     0.037 A   
ATOM     27  C19 UNL     1      -4.388  -2.479   0.149  1.00  0.00     0.109 A   
ATOM     28  C18 UNL     1      -4.048  -3.334   1.169  1.00  0.00     0.108 A   
ATOM     29  O2  UNL     1      -5.620  -2.741  -0.360  1.00  0.00    -0.316 OA  
ATOM     30  O3  UNL     1      -5.022  -4.245   1.427  1.00  0.00    -0.316 OA  
ATOM     31  C21 UNL     1      -6.013  -3.878   0.442  1.00  0.00     0.337 C   
ENDBRANCH  22  23
ENDBRANCH  19  22
ENDBRANCH  18  19
BRANCH  18  32
ATOM     32  C22 UNL     1      -1.167   3.425   1.246  1.00  0.00     0.010 C   
ATOM     33  C23 UNL     1      -2.519   3.822   0.609  1.00  0.00     0.017 C   
ATOM     34  C24 UNL     1      -1.370   3.300   2.768  1.00  0.00     0.017 C   
ATOM     35  C25 UNL     1      -0.184   4.589   0.979  1.00  0.00     0.017 C   
ENDBRANCH  18  32
ENDBRANCH   3  18
TORSDOF 9
