REMARK SMILES Oc1ccc(-n2cc([C@@H]([NH2+]Cc3ccc4c(c3)OCO4)C3CCCCC3)nn2)cc1
REMARK SMILES IDX 6 1 7 2 8 3 27 4 28 5 5 6 2 7 3 8 30 9 4 10 29 11 1 12 9 14
REMARK SMILES IDX 10 15 11 18 12 19 13 20 17 21 14 22 16 23 15 24 18 25 20 26
REMARK SMILES IDX 19 27 21 28 22 29 26 30 23 31 25 32 24 33
REMARK H PARENT 1 13 10 16 10 17
ROOT
ATOM     1   N1  UNL     1      -1.694  -0.819  -1.048  1.00  0.00    -0.181 N   
ATOM     2   C5  UNL     1      -0.624   0.001  -0.744  1.00  0.00     0.135 A   
ATOM     3   C6  UNL     1       0.316  -0.830  -0.175  1.00  0.00     0.127 A   
ATOM     4   N3  UNL     1      -0.190  -2.097  -0.111  1.00  0.00    -0.131 NA  
ATOM     5   N4  UNL     1      -1.406  -2.080  -0.630  1.00  0.00    -0.071 NA  
ENDROOT
BRANCH   1   6
ATOM     6   C4  UNL     1      -2.925  -0.492  -1.667  1.00  0.00     0.058 A   
ATOM     7   C1  UNL     1      -5.364   0.112  -2.880  1.00  0.00     0.071 A   
ATOM     8   C2  UNL     1      -4.422   1.115  -2.689  1.00  0.00     0.035 A   
ATOM     9   C23 UNL     1      -5.109  -1.193  -2.476  1.00  0.00     0.035 A   
ATOM     10  C3  UNL     1      -3.198   0.819  -2.082  1.00  0.00     0.028 A   
ATOM     11  C22 UNL     1      -3.887  -1.497  -1.869  1.00  0.00     0.028 A   
BRANCH   7  12
ATOM     12  O1  UNL     1      -6.539   0.457  -3.477  1.00  0.00    -0.361 OA  
ATOM     13  H1  UNL     1      -7.101  -0.332  -3.558  1.00  0.00     0.218 HD  
ENDBRANCH   7  12
ENDBRANCH   1   6
BRANCH   3  14
ATOM     14  C7  UNL     1       1.674  -0.550   0.385  1.00  0.00     0.117 C   
BRANCH  14  15
ATOM     15  N2  UNL     1       1.976  -1.505   1.524  1.00  0.00     0.249 N   
ATOM     16  H6  UNL     1       1.737  -2.448   1.184  1.00  0.00     0.199 HD  
ATOM     17  H7  UNL     1       2.978  -1.503   1.733  1.00  0.00     0.199 HD  
BRANCH  15  18
ATOM     18  C8  UNL     1       1.211  -1.292   2.789  1.00  0.00     0.164 C   
BRANCH  18  19
ATOM     19  C9  UNL     1       1.572  -0.009   3.484  1.00  0.00    -0.002 A   
ATOM     20  C10 UNL     1       0.651   1.066   3.520  1.00  0.00     0.012 A   
ATOM     21  C14 UNL     1       2.835   0.142   4.082  1.00  0.00     0.045 A   
ATOM     22  C11 UNL     1       0.983   2.277   4.136  1.00  0.00     0.037 A   
ATOM     23  C13 UNL     1       3.130   1.350   4.681  1.00  0.00     0.109 A   
ATOM     24  C12 UNL     1       2.232   2.388   4.706  1.00  0.00     0.108 A   
ATOM     25  O2  UNL     1       4.301   1.661   5.296  1.00  0.00    -0.316 OA  
ATOM     26  O3  UNL     1       2.723   3.482   5.342  1.00  0.00    -0.316 OA  
ATOM     27  C15 UNL     1       4.025   3.007   5.747  1.00  0.00     0.337 C   
ENDBRANCH  18  19
ENDBRANCH  15  18
ENDBRANCH  14  15
BRANCH  14  28
ATOM     28  C16 UNL     1       2.827  -0.656  -0.651  1.00  0.00     0.043 C   
ATOM     29  C17 UNL     1       2.955  -2.039  -1.319  1.00  0.00     0.010 C   
ATOM     30  C21 UNL     1       2.729   0.445  -1.726  1.00  0.00     0.010 C   
ATOM     31  C18 UNL     1       4.129  -2.086  -2.298  1.00  0.00     0.001 C   
ATOM     32  C20 UNL     1       3.907   0.394  -2.696  1.00  0.00     0.001 C   
ATOM     33  C19 UNL     1       4.038  -0.981  -3.345  1.00  0.00     0.000 C   
ENDBRANCH  14  28
ENDBRANCH   3  14
TORSDOF 7
