REMARK SMILES CC(C)(C)[C@H]([NH2+]Cc1ccc2c(c1)OCO2)c1cn(-c2ccnc(CO)c2)nn1
REMARK SMILES IDX 17 1 18 2 19 3 28 4 29 5 5 6 2 7 1 8 3 9 4 10 6 11 7 14 8 15
REMARK SMILES IDX 9 16 13 17 10 18 12 19 11 20 14 21 16 22 15 23 20 24 21 25
REMARK SMILES IDX 27 26 22 27 24 28 23 29 25 30 26 31
REMARK H PARENT 6 12 6 13 26 32
ROOT
ATOM     1   C14 UNL     1       1.782  -0.407  -0.447  1.00  0.00     0.128 A   
ATOM     2   C15 UNL     1       0.752  -0.649   0.436  1.00  0.00     0.135 A   
ATOM     3   N2  UNL     1       0.798   0.400   1.332  1.00  0.00    -0.180 N   
ATOM     4   N4  UNL     1       1.873   1.177   1.041  1.00  0.00    -0.071 NA  
ATOM     5   N5  UNL     1       2.462   0.708  -0.046  1.00  0.00    -0.131 NA  
ENDROOT
BRANCH   1   6
ATOM     6   C5  UNL     1       2.136  -1.061  -1.749  1.00  0.00     0.120 C   
BRANCH   6   7
ATOM     7   C2  UNL     1       3.356  -2.042  -1.665  1.00  0.00     0.010 C   
ATOM     8   C1  UNL     1       3.527  -2.794  -3.006  1.00  0.00     0.017 C   
ATOM     9   C3  UNL     1       4.681  -1.328  -1.336  1.00  0.00     0.017 C   
ATOM     10  C4  UNL     1       3.100  -3.114  -0.580  1.00  0.00     0.017 C   
ENDBRANCH   6   7
BRANCH   6  11
ATOM     11  N1  UNL     1       2.391   0.025  -2.781  1.00  0.00     0.250 N   
ATOM     12  H11 UNL     1       3.104  -0.262  -3.455  1.00  0.00     0.199 HD  
ATOM     13  H12 UNL     1       2.800   0.820  -2.264  1.00  0.00     0.199 HD  
BRANCH  11  14
ATOM     14  C6  UNL     1       1.200   0.524  -3.537  1.00  0.00     0.164 C   
BRANCH  14  15
ATOM     15  C7  UNL     1       0.204   1.262  -2.687  1.00  0.00    -0.002 A   
ATOM     16  C8  UNL     1       0.494   2.568  -2.222  1.00  0.00     0.012 A   
ATOM     17  C12 UNL     1      -0.995   0.642  -2.292  1.00  0.00     0.045 A   
ATOM     18  C9  UNL     1      -0.381   3.238  -1.360  1.00  0.00     0.037 A   
ATOM     19  C11 UNL     1      -1.830   1.326  -1.431  1.00  0.00     0.109 A   
ATOM     20  C10 UNL     1      -1.532   2.586  -0.978  1.00  0.00     0.108 A   
ATOM     21  O1  UNL     1      -2.994   0.852  -0.914  1.00  0.00    -0.316 OA  
ATOM     22  O2  UNL     1      -2.476   3.071  -0.131  1.00  0.00    -0.316 OA  
ATOM     23  C13 UNL     1      -3.432   1.990  -0.134  1.00  0.00     0.337 C   
ENDBRANCH  14  15
ENDBRANCH  11  14
ENDBRANCH   6  11
ENDBRANCH   1   6
BRANCH   3  24
ATOM     24  C16 UNL     1      -0.111   0.730   2.365  1.00  0.00     0.061 A   
ATOM     25  C17 UNL     1       0.095   1.889   3.119  1.00  0.00     0.046 A   
ATOM     26  C21 UNL     1      -1.230  -0.068   2.624  1.00  0.00     0.052 A   
ATOM     27  C18 UNL     1      -0.834   2.209   4.092  1.00  0.00     0.113 A   
ATOM     28  C19 UNL     1      -2.115   0.336   3.620  1.00  0.00     0.068 A   
ATOM     29  N3  UNL     1      -1.928   1.464   4.354  1.00  0.00    -0.259 NA  
BRANCH  28  30
ATOM     30  C20 UNL     1      -3.342  -0.489   3.938  1.00  0.00     0.212 C   
BRANCH  30  31
ATOM     31  O3  UNL     1      -4.239   0.230   4.779  1.00  0.00    -0.390 OA  
ATOM     32  H25 UNL     1      -3.738   1.018   5.076  1.00  0.00     0.211 HD  
ENDBRANCH  30  31
ENDBRANCH  28  30
ENDBRANCH   3  24
TORSDOF 8
