REMARK SMILES CC(C)(C)[C@H]([NH2+]Cc1ccc2c(c1)OCO2)c1cn(CCc2cc(Cl)ccc2O)nn1
REMARK SMILES IDX 17 1 18 2 19 3 30 4 31 5 5 7 2 8 1 9 3 10 4 11 6 12 7 15
REMARK SMILES IDX 8 16 9 17 13 18 10 19 12 20 11 21 14 22 16 23 15 24 20 25
REMARK SMILES IDX 21 26 22 27 23 28 28 29 24 30 27 31 26 32 25 33 29 34
REMARK H PARENT 18 6 6 13 6 14 29 35
ROOT
ATOM     1   C14 UNL     1      -1.148   0.056   0.737  1.00  0.00     0.127 A   
ATOM     2   C15 UNL     1      -1.972   0.779  -0.097  1.00  0.00     0.045 A   
ATOM     3   N2  UNL     1      -1.905   2.052   0.397  1.00  0.00    -0.212 N   
ATOM     4   N3  UNL     1      -1.093   2.111   1.468  1.00  0.00    -0.076 NA  
ATOM     5   N4  UNL     1      -0.623   0.895   1.688  1.00  0.00    -0.132 NA  
ATOM     6   H20 UNL     1      -2.547   0.531  -0.978  1.00  0.00     0.083 HD  
ENDROOT
BRANCH   1   7
ATOM     7   C5  UNL     1      -0.695  -1.372   0.685  1.00  0.00     0.120 C   
BRANCH   7   8
ATOM     8   C2  UNL     1      -1.540  -2.348   1.576  1.00  0.00     0.010 C   
ATOM     9   C1  UNL     1      -3.033  -2.268   1.184  1.00  0.00     0.017 C   
ATOM     10  C3  UNL     1      -1.417  -2.040   3.081  1.00  0.00     0.017 C   
ATOM     11  C4  UNL     1      -1.093  -3.810   1.343  1.00  0.00     0.017 C   
ENDBRANCH   7   8
BRANCH   7  12
ATOM     12  N1  UNL     1       0.763  -1.427   1.078  1.00  0.00     0.250 N   
ATOM     13  H11 UNL     1       1.069  -2.370   1.332  1.00  0.00     0.199 HD  
ATOM     14  H12 UNL     1       0.861  -0.852   1.928  1.00  0.00     0.199 HD  
BRANCH  12  15
ATOM     15  C6  UNL     1       1.714  -0.874   0.070  1.00  0.00     0.164 C   
BRANCH  15  16
ATOM     16  C7  UNL     1       3.117  -0.902   0.604  1.00  0.00    -0.002 A   
ATOM     17  C8  UNL     1       3.603   0.179   1.377  1.00  0.00     0.012 A   
ATOM     18  C12 UNL     1       3.937  -2.022   0.386  1.00  0.00     0.045 A   
ATOM     19  C9  UNL     1       4.892   0.153   1.918  1.00  0.00     0.037 A   
ATOM     20  C11 UNL     1       5.203  -2.015   0.933  1.00  0.00     0.109 A   
ATOM     21  C10 UNL     1       5.668  -0.959   1.677  1.00  0.00     0.108 A   
ATOM     22  O1  UNL     1       6.118  -3.013   0.819  1.00  0.00    -0.316 OA  
ATOM     23  O2  UNL     1       6.935  -1.157   2.123  1.00  0.00    -0.316 OA  
ATOM     24  C13 UNL     1       7.229  -2.451   1.554  1.00  0.00     0.337 C   
ENDBRANCH  15  16
ENDBRANCH  12  15
ENDBRANCH   7  12
ENDBRANCH   1   7
BRANCH   3  25
ATOM     25  C16 UNL     1      -2.494   3.257  -0.153  1.00  0.00     0.139 C   
BRANCH  25  26
ATOM     26  C17 UNL     1      -1.462   4.149  -0.847  1.00  0.00     0.059 C   
BRANCH  26  27
ATOM     27  C18 UNL     1      -0.781   3.465  -2.013  1.00  0.00    -0.015 A   
ATOM     28  C19 UNL     1       0.514   2.947  -1.859  1.00  0.00     0.027 A   
ATOM     29  C23 UNL     1      -1.427   3.299  -3.243  1.00  0.00     0.075 A   
ATOM     30  C20 UNL     1       1.132   2.274  -2.913  1.00  0.00     0.041 A   
ATOM     31  C22 UNL     1      -0.804   2.646  -4.305  1.00  0.00     0.035 A   
ATOM     32  C21 UNL     1       0.482   2.128  -4.136  1.00  0.00     0.023 A   
ATOM     33  CL1 UNL     1       2.690   1.583  -2.682  1.00  0.00    -0.084 Cl  
BRANCH  29  34
ATOM     34  O3  UNL     1      -2.698   3.777  -3.379  1.00  0.00    -0.361 OA  
ATOM     35  H28 UNL     1      -2.935   3.787  -4.323  1.00  0.00     0.218 HD  
ENDBRANCH  29  34
ENDBRANCH  26  27
ENDBRANCH  25  26
ENDBRANCH   3  25
TORSDOF 9
