REMARK SMILES CC[C@H](c1ccccn1)n1cc([C@@H]([NH2+]Cc2ccc3c(c2)OCO3)C2CCCCC2)nn1
REMARK SMILES IDX 10 1 11 2 12 3 31 4 32 5 3 7 2 8 1 9 4 10 5 11 9 12 6 13
REMARK SMILES IDX 8 14 7 15 13 16 14 17 15 20 16 21 17 22 21 23 18 24 20 25
REMARK SMILES IDX 19 26 22 27 24 28 23 29 25 30 26 31 30 32 27 33 29 34 28 35
REMARK H PARENT 11 6 14 18 14 19
ROOT
ATOM     1   N2  UNL     1      -1.722  -0.364  -2.484  1.00  0.00    -0.203 N   
ATOM     2   C9  UNL     1      -0.567   0.373  -2.430  1.00  0.00     0.046 A   
ATOM     3   C10 UNL     1      -0.126   0.216  -1.137  1.00  0.00     0.127 A   
ATOM     4   N4  UNL     1      -1.023  -0.562  -0.448  1.00  0.00    -0.132 NA  
ATOM     5   N5  UNL     1      -1.996  -0.901  -1.276  1.00  0.00    -0.075 NA  
ATOM     6   H11 UNL     1      -0.189   0.903  -3.296  1.00  0.00     0.083 HD  
ENDROOT
BRANCH   1   7
ATOM     7   C3  UNL     1      -2.577  -0.657  -3.631  1.00  0.00     0.148 C   
BRANCH   7   8
ATOM     8   C2  UNL     1      -1.842  -1.456  -4.726  1.00  0.00     0.028 C   
ATOM     9   C1  UNL     1      -1.393  -2.834  -4.249  1.00  0.00     0.006 C   
ENDBRANCH   7   8
BRANCH   7  10
ATOM     10  C4  UNL     1      -3.173   0.639  -4.158  1.00  0.00     0.063 A   
ATOM     11  C5  UNL     1      -4.470   1.007  -3.797  1.00  0.00     0.026 A   
ATOM     12  N1  UNL     1      -2.392   1.424  -4.948  1.00  0.00    -0.259 NA  
ATOM     13  C6  UNL     1      -4.987   2.205  -4.278  1.00  0.00     0.004 A   
ATOM     14  C8  UNL     1      -2.928   2.578  -5.407  1.00  0.00     0.111 A   
ATOM     15  C7  UNL     1      -4.206   3.007  -5.099  1.00  0.00     0.020 A   
ENDBRANCH   7  10
ENDBRANCH   1   7
BRANCH   3  16
ATOM     16  C11 UNL     1       1.072   0.751  -0.421  1.00  0.00     0.117 C   
BRANCH  16  17
ATOM     17  N3  UNL     1       0.760   0.878   1.051  1.00  0.00     0.249 N   
ATOM     18  H13 UNL     1       0.237   0.028   1.313  1.00  0.00     0.199 HD  
ATOM     19  H14 UNL     1       1.609   0.878   1.624  1.00  0.00     0.199 HD  
BRANCH  17  20
ATOM     20  C12 UNL     1      -0.091   2.040   1.427  1.00  0.00     0.164 C   
BRANCH  20  21
ATOM     21  C13 UNL     1      -0.408   1.994   2.895  1.00  0.00    -0.002 A   
ATOM     22  C14 UNL     1      -1.579   1.338   3.347  1.00  0.00     0.012 A   
ATOM     23  C18 UNL     1       0.487   2.537   3.832  1.00  0.00     0.045 A   
ATOM     24  C15 UNL     1      -1.861   1.233   4.714  1.00  0.00     0.037 A   
ATOM     25  C17 UNL     1       0.182   2.407   5.171  1.00  0.00     0.109 A   
ATOM     26  C16 UNL     1      -0.958   1.775   5.601  1.00  0.00     0.108 A   
ATOM     27  O1  UNL     1       0.947   2.856   6.202  1.00  0.00    -0.316 OA  
ATOM     28  O2  UNL     1      -1.061   1.754   6.954  1.00  0.00    -0.316 OA  
ATOM     29  C19 UNL     1       0.151   2.441   7.336  1.00  0.00     0.337 C   
ENDBRANCH  20  21
ENDBRANCH  17  20
ENDBRANCH  16  17
BRANCH  16  30
ATOM     30  C20 UNL     1       2.345  -0.126  -0.568  1.00  0.00     0.043 C   
ATOM     31  C21 UNL     1       2.898  -0.094  -2.006  1.00  0.00     0.010 C   
ATOM     32  C25 UNL     1       2.161  -1.585  -0.104  1.00  0.00     0.010 C   
ATOM     33  C22 UNL     1       4.197  -0.887  -2.123  1.00  0.00     0.001 C   
ATOM     34  C24 UNL     1       3.454  -2.389  -0.238  1.00  0.00     0.001 C   
ATOM     35  C23 UNL     1       4.018  -2.326  -1.653  1.00  0.00     0.000 C   
ENDBRANCH  16  30
ENDBRANCH   3  16
TORSDOF 8
