REMARK SMILES CC[C@@H](c1ccccn1)n1cc([C@@H]([NH2+]Cc2ccc3c(c2)OCO3)C2CCCCC2)nn1
REMARK SMILES IDX 10 1 11 2 12 3 31 4 32 5 3 7 2 8 1 9 4 10 5 11 9 12 6 13
REMARK SMILES IDX 8 14 7 15 13 16 14 17 15 20 16 21 17 22 21 23 18 24 20 25
REMARK SMILES IDX 19 26 22 27 24 28 23 29 25 30 26 31 30 32 27 33 29 34 28 35
REMARK H PARENT 11 6 14 18 14 19
ROOT
ATOM     1   N2  UNL     1      -0.689   2.645  -2.050  1.00  0.00    -0.203 N   
ATOM     2   C9  UNL     1      -1.142   1.357  -1.926  1.00  0.00     0.046 A   
ATOM     3   C10 UNL     1      -0.336   0.808  -0.955  1.00  0.00     0.127 A   
ATOM     4   N4  UNL     1       0.590   1.740  -0.560  1.00  0.00    -0.132 NA  
ATOM     5   N5  UNL     1       0.375   2.852  -1.244  1.00  0.00    -0.075 NA  
ATOM     6   H11 UNL     1      -1.984   0.988  -2.497  1.00  0.00     0.083 HD  
ENDROOT
BRANCH   1   7
ATOM     7   C3  UNL     1      -1.177   3.716  -2.915  1.00  0.00     0.148 C   
BRANCH   7   8
ATOM     8   C2  UNL     1      -1.004   3.397  -4.413  1.00  0.00     0.028 C   
ATOM     9   C1  UNL     1       0.458   3.274  -4.826  1.00  0.00     0.006 C   
ENDBRANCH   7   8
BRANCH   7  10
ATOM     10  C4  UNL     1      -2.620   4.032  -2.558  1.00  0.00     0.063 A   
ATOM     11  C5  UNL     1      -2.918   5.117  -1.733  1.00  0.00     0.026 A   
ATOM     12  N1  UNL     1      -3.587   3.208  -3.044  1.00  0.00    -0.259 NA  
ATOM     13  C6  UNL     1      -4.249   5.379  -1.417  1.00  0.00     0.004 A   
ATOM     14  C8  UNL     1      -4.871   3.495  -2.728  1.00  0.00     0.111 A   
ATOM     15  C7  UNL     1      -5.247   4.557  -1.925  1.00  0.00     0.020 A   
ENDBRANCH   7  10
ENDBRANCH   1   7
BRANCH   3  16
ATOM     16  C11 UNL     1      -0.327  -0.552  -0.333  1.00  0.00     0.117 C   
BRANCH  16  17
ATOM     17  N3  UNL     1       1.017  -0.825   0.286  1.00  0.00     0.249 N   
ATOM     18  H13 UNL     1       0.966  -1.502   1.053  1.00  0.00     0.199 HD  
ATOM     19  H14 UNL     1       1.325   0.065   0.708  1.00  0.00     0.199 HD  
BRANCH  17  20
ATOM     20  C12 UNL     1       2.080  -1.242  -0.668  1.00  0.00     0.164 C   
BRANCH  20  21
ATOM     21  C13 UNL     1       3.409  -1.325   0.029  1.00  0.00    -0.002 A   
ATOM     22  C14 UNL     1       4.298  -0.224  -0.003  1.00  0.00     0.012 A   
ATOM     23  C18 UNL     1       3.755  -2.474   0.762  1.00  0.00     0.045 A   
ATOM     24  C15 UNL     1       5.523  -0.270   0.669  1.00  0.00     0.037 A   
ATOM     25  C17 UNL     1       4.968  -2.483   1.420  1.00  0.00     0.109 A   
ATOM     26  C16 UNL     1       5.829  -1.414   1.373  1.00  0.00     0.108 A   
ATOM     27  O1  UNL     1       5.450  -3.508   2.171  1.00  0.00    -0.316 OA  
ATOM     28  O2  UNL     1       6.965  -1.634   2.083  1.00  0.00    -0.316 OA  
ATOM     29  C19 UNL     1       6.719  -2.961   2.598  1.00  0.00     0.337 C   
ENDBRANCH  20  21
ENDBRANCH  17  20
ENDBRANCH  16  17
BRANCH  16  30
ATOM     30  C20 UNL     1      -1.454  -0.718   0.721  1.00  0.00     0.043 C   
ATOM     31  C21 UNL     1      -1.670  -2.198   1.093  1.00  0.00     0.010 C   
ATOM     32  C25 UNL     1      -1.249   0.128   1.994  1.00  0.00     0.010 C   
ATOM     33  C22 UNL     1      -2.824  -2.368   2.080  1.00  0.00     0.001 C   
ATOM     34  C24 UNL     1      -2.403  -0.049   2.980  1.00  0.00     0.001 C   
ATOM     35  C23 UNL     1      -2.625  -1.517   3.330  1.00  0.00     0.000 C   
ENDBRANCH  16  30
ENDBRANCH   3  16
TORSDOF 8
