REMARK SMILES CCn1nc(C)c(Cn2cc([C@H](CC(C)C)[NH2+]Cc3ccc4c(c3)OCO4)nn2)c1C
REMARK SMILES IDX 9 1 10 2 11 3 28 4 29 5 8 7 7 8 3 9 4 10 30 11 5 12 31 13
REMARK SMILES IDX 6 14 2 15 1 16 12 17 13 18 14 19 15 20 16 21 17 22 18 25
REMARK SMILES IDX 19 26 20 27 24 28 21 29 23 30 22 31 25 32 27 33 26 34
REMARK H PARENT 10 6 17 23 17 24
ROOT
ATOM     1   N3  UNL     1      -0.764  -0.903   3.004  1.00  0.00    -0.208 N   
ATOM     2   C7  UNL     1      -1.025  -1.172   1.688  1.00  0.00     0.046 A   
ATOM     3   C8  UNL     1      -0.754  -2.516   1.563  1.00  0.00     0.127 A   
ATOM     4   N5  UNL     1      -0.407  -3.022   2.788  1.00  0.00    -0.132 NA  
ATOM     5   N6  UNL     1      -0.410  -2.026   3.660  1.00  0.00    -0.076 NA  
ATOM     6   H11 UNL     1      -1.294  -0.398   0.981  1.00  0.00     0.083 HD  
ENDROOT
BRANCH   1   7
ATOM     7   C6  UNL     1      -0.698   0.398   3.654  1.00  0.00     0.173 C   
BRANCH   7   8
ATOM     8   C5  UNL     1       0.425   1.188   3.066  1.00  0.00     0.013 A   
ATOM     9   N1  UNL     1       1.667   2.599   1.918  1.00  0.00    -0.230 N   
ATOM     10  N2  UNL     1       2.556   1.792   2.519  1.00  0.00    -0.186 NA  
ATOM     11  C22 UNL     1       0.362   2.255   2.180  1.00  0.00     0.032 A   
ATOM     12  C3  UNL     1       1.816   0.978   3.277  1.00  0.00     0.062 A   
ATOM     13  C23 UNL     1      -0.795   2.965   1.575  1.00  0.00     0.064 C   
ATOM     14  C4  UNL     1       2.492  -0.016   4.150  1.00  0.00     0.069 C   
BRANCH   9  15
ATOM     15  C2  UNL     1       2.162   3.676   1.076  1.00  0.00     0.129 C   
ATOM     16  C1  UNL     1       2.459   4.931   1.875  1.00  0.00     0.027 C   
ENDBRANCH   9  15
ENDBRANCH   7   8
ENDBRANCH   1   7
BRANCH   3  17
ATOM     17  C9  UNL     1      -0.687  -3.381   0.353  1.00  0.00     0.114 C   
BRANCH  17  18
ATOM     18  C10 UNL     1      -1.889  -4.337   0.237  1.00  0.00     0.064 C   
BRANCH  18  19
ATOM     19  C11 UNL     1      -3.261  -3.645   0.079  1.00  0.00    -0.012 C   
ATOM     20  C12 UNL     1      -4.370  -4.700   0.046  1.00  0.00     0.007 C   
ATOM     21  C13 UNL     1      -3.335  -2.779  -1.181  1.00  0.00     0.007 C   
ENDBRANCH  18  19
ENDBRANCH  17  18
BRANCH  17  22
ATOM     22  N4  UNL     1       0.560  -4.246   0.380  1.00  0.00     0.249 N   
ATOM     23  H22 UNL     1       0.495  -4.830   1.225  1.00  0.00     0.199 HD  
ATOM     24  H23 UNL     1       0.562  -4.874  -0.428  1.00  0.00     0.199 HD  
BRANCH  22  25
ATOM     25  C14 UNL     1       1.874  -3.532   0.451  1.00  0.00     0.164 C   
BRANCH  25  26
ATOM     26  C15 UNL     1       2.074  -2.503  -0.627  1.00  0.00    -0.002 A   
ATOM     27  C16 UNL     1       2.210  -1.136  -0.281  1.00  0.00     0.012 A   
ATOM     28  C20 UNL     1       2.114  -2.878  -1.981  1.00  0.00     0.045 A   
ATOM     29  C17 UNL     1       2.370  -0.154  -1.263  1.00  0.00     0.037 A   
ATOM     30  C19 UNL     1       2.268  -1.883  -2.925  1.00  0.00     0.109 A   
ATOM     31  C18 UNL     1       2.391  -0.560  -2.578  1.00  0.00     0.108 A   
ATOM     32  O1  UNL     1       2.310  -2.073  -4.270  1.00  0.00    -0.316 OA  
ATOM     33  O2  UNL     1       2.530   0.249  -3.660  1.00  0.00    -0.316 OA  
ATOM     34  C21 UNL     1       2.520  -0.719  -4.731  1.00  0.00     0.337 C   
ENDBRANCH  25  26
ENDBRANCH  22  25
ENDBRANCH  17  22
ENDBRANCH   3  17
TORSDOF 9
