REMARK SMILES CC(C)C[C@H]([NH2+]Cc1ccc2c(c1)OCO2)c1cn(Cc2conc2C(C)(C)C)nn1
REMARK SMILES IDX 17 1 18 2 19 3 30 4 31 5 5 7 4 8 2 9 1 10 3 11 6 12 7 15
REMARK SMILES IDX 8 16 9 17 13 18 10 19 12 20 11 21 14 22 16 23 15 24 20 25
REMARK SMILES IDX 21 26 22 27 25 28 23 29 24 30 26 31 27 32 28 33 29 34
REMARK H PARENT 18 6 6 13 6 14
ROOT
ATOM     1   C14 UNL     1       0.696  -1.493   0.277  1.00  0.00     0.127 A   
ATOM     2   C15 UNL     1       0.233  -0.486   1.094  1.00  0.00     0.046 A   
ATOM     3   N2  UNL     1       1.360   0.004   1.698  1.00  0.00    -0.208 N   
ATOM     4   N4  UNL     1       2.449  -0.680   1.289  1.00  0.00    -0.076 NA  
ATOM     5   N5  UNL     1       2.055  -1.596   0.419  1.00  0.00    -0.132 NA  
ATOM     6   H20 UNL     1      -0.755  -0.084   1.279  1.00  0.00     0.083 HD  
ENDROOT
BRANCH   1   7
ATOM     7   C5  UNL     1      -0.017  -2.388  -0.686  1.00  0.00     0.114 C   
BRANCH   7   8
ATOM     8   C4  UNL     1      -0.490  -3.675   0.018  1.00  0.00     0.064 C   
BRANCH   8   9
ATOM     9   C2  UNL     1      -1.313  -4.664  -0.836  1.00  0.00    -0.012 C   
ATOM     10  C1  UNL     1      -1.731  -5.859   0.026  1.00  0.00     0.007 C   
ATOM     11  C3  UNL     1      -2.552  -4.019  -1.456  1.00  0.00     0.007 C   
ENDBRANCH   8   9
ENDBRANCH   7   8
BRANCH   7  12
ATOM     12  N1  UNL     1       0.898  -2.756  -1.829  1.00  0.00     0.249 N   
ATOM     13  H11 UNL     1       1.780  -3.069  -1.400  1.00  0.00     0.199 HD  
ATOM     14  H12 UNL     1       0.522  -3.544  -2.361  1.00  0.00     0.199 HD  
BRANCH  12  15
ATOM     15  C6  UNL     1       1.231  -1.658  -2.785  1.00  0.00     0.164 C   
BRANCH  15  16
ATOM     16  C7  UNL     1       0.068  -1.285  -3.661  1.00  0.00    -0.002 A   
ATOM     17  C8  UNL     1      -0.303  -2.114  -4.749  1.00  0.00     0.012 A   
ATOM     18  C12 UNL     1      -0.686  -0.132  -3.382  1.00  0.00     0.045 A   
ATOM     19  C9  UNL     1      -1.409  -1.801  -5.545  1.00  0.00     0.037 A   
ATOM     20  C11 UNL     1      -1.774   0.144  -4.184  1.00  0.00     0.109 A   
ATOM     21  C10 UNL     1      -2.125  -0.666  -5.235  1.00  0.00     0.108 A   
ATOM     22  O1  UNL     1      -2.611   1.205  -4.042  1.00  0.00    -0.316 OA  
ATOM     23  O2  UNL     1      -3.224  -0.214  -5.892  1.00  0.00    -0.316 OA  
ATOM     24  C13 UNL     1      -3.514   0.991  -5.150  1.00  0.00     0.337 C   
ENDBRANCH  15  16
ENDBRANCH  12  15
ENDBRANCH   7  12
ENDBRANCH   1   7
BRANCH   3  25
ATOM     25  C16 UNL     1       1.511   1.087   2.666  1.00  0.00     0.173 C   
BRANCH  25  26
ATOM     26  C17 UNL     1       0.508   2.164   2.471  1.00  0.00     0.021 A   
ATOM     27  C18 UNL     1      -0.684   2.283   3.153  1.00  0.00     0.171 A   
ATOM     28  C19 UNL     1       0.514   3.305   1.599  1.00  0.00     0.081 A   
ATOM     29  O3  UNL     1      -1.364   3.358   2.708  1.00  0.00    -0.221 OA  
ATOM     30  N3  UNL     1      -0.630   3.993   1.738  1.00  0.00    -0.133 NA  
BRANCH  28  31
ATOM     31  C20 UNL     1       1.579   3.822   0.633  1.00  0.00     0.007 C   
ATOM     32  C21 UNL     1       1.035   4.963  -0.263  1.00  0.00     0.017 C   
ATOM     33  C22 UNL     1       2.776   4.384   1.425  1.00  0.00     0.017 C   
ATOM     34  C23 UNL     1       2.075   2.713  -0.314  1.00  0.00     0.017 C   
ENDBRANCH  28  31
ENDBRANCH  25  26
ENDBRANCH   3  25
TORSDOF 9
