REMARK SMILES Cc1cc(F)cc(CCn2cc([C@@H]([NH2+]Cc3ccc4c(c3)OCO4)C(C)C)nn2)c1
REMARK SMILES IDX 10 1 11 2 12 3 28 4 29 5 9 7 8 8 7 9 2 10 3 11 30 12 4 13
REMARK SMILES IDX 6 14 1 15 5 16 13 17 14 18 15 21 16 22 17 23 21 24 18 25
REMARK SMILES IDX 20 26 19 27 22 28 24 29 23 30 25 31 26 32 27 33
REMARK H PARENT 11 6 14 19 14 20
ROOT
ATOM     1   N1  UNL     1       1.600   3.219   0.228  1.00  0.00    -0.212 N   
ATOM     2   C9  UNL     1       0.352   2.821   0.620  1.00  0.00     0.045 A   
ATOM     3   C10 UNL     1       0.572   1.618   1.251  1.00  0.00     0.127 A   
ATOM     4   N3  UNL     1       1.918   1.354   1.258  1.00  0.00    -0.132 NA  
ATOM     5   N4  UNL     1       2.536   2.342   0.634  1.00  0.00    -0.076 NA  
ATOM     6   H10 UNL     1      -0.540   3.380   0.370  1.00  0.00     0.083 HD  
ENDROOT
BRANCH   1   7
ATOM     7   C8  UNL     1       1.950   4.322  -0.646  1.00  0.00     0.139 C   
BRANCH   7   8
ATOM     8   C7  UNL     1       2.338   3.865  -2.058  1.00  0.00     0.057 C   
BRANCH   8   9
ATOM     9   C6  UNL     1       1.223   3.121  -2.759  1.00  0.00    -0.043 A   
ATOM     10  C2  UNL     1      -0.827   3.125  -4.085  1.00  0.00    -0.048 A   
ATOM     11  C3  UNL     1      -0.928   1.738  -3.921  1.00  0.00     0.042 A   
ATOM     12  C23 UNL     1       0.239   3.812  -3.482  1.00  0.00     0.007 A   
ATOM     13  C4  UNL     1       0.047   1.056  -3.202  1.00  0.00     0.123 A   
ATOM     14  C5  UNL     1       1.126   1.728  -2.642  1.00  0.00     0.043 A   
ATOM     15  C1  UNL     1      -1.877   3.877  -4.852  1.00  0.00     0.044 C   
ATOM     16  F1  UNL     1      -0.071  -0.266  -3.008  1.00  0.00    -0.207 F   
ENDBRANCH   8   9
ENDBRANCH   7   8
ENDBRANCH   1   7
BRANCH   3  17
ATOM     17  C11 UNL     1      -0.381   0.607   1.804  1.00  0.00     0.117 C   
BRANCH  17  18
ATOM     18  N2  UNL     1       0.187  -0.777   1.652  1.00  0.00     0.249 N   
ATOM     19  H12 UNL     1      -0.250  -1.449   2.289  1.00  0.00     0.199 HD  
ATOM     20  H13 UNL     1       1.180  -0.722   1.926  1.00  0.00     0.199 HD  
BRANCH  18  21
ATOM     21  C12 UNL     1       0.148  -1.329   0.267  1.00  0.00     0.164 C   
BRANCH  21  22
ATOM     22  C13 UNL     1       0.765  -2.698   0.230  1.00  0.00    -0.002 A   
ATOM     23  C14 UNL     1       2.132  -2.857  -0.103  1.00  0.00     0.012 A   
ATOM     24  C18 UNL     1       0.000  -3.825   0.576  1.00  0.00     0.045 A   
ATOM     25  C15 UNL     1       2.727  -4.123  -0.107  1.00  0.00     0.037 A   
ATOM     26  C17 UNL     1       0.619  -5.057   0.566  1.00  0.00     0.109 A   
ATOM     27  C16 UNL     1       1.943  -5.203   0.233  1.00  0.00     0.108 A   
ATOM     28  O1  UNL     1       0.023  -6.241   0.868  1.00  0.00    -0.316 OA  
ATOM     29  O2  UNL     1       2.348  -6.499   0.277  1.00  0.00    -0.316 OA  
ATOM     30  C19 UNL     1       1.130  -7.154   0.691  1.00  0.00     0.337 C   
ENDBRANCH  21  22
ENDBRANCH  18  21
ENDBRANCH  17  18
BRANCH  17  31
ATOM     31  C20 UNL     1      -0.745   0.885   3.286  1.00  0.00     0.037 C   
ATOM     32  C21 UNL     1       0.423   0.701   4.262  1.00  0.00     0.014 C   
ATOM     33  C22 UNL     1      -1.937   0.034   3.745  1.00  0.00     0.014 C   
ENDBRANCH  17  31
ENDBRANCH   3  17
TORSDOF 8
