REMARK SMILES CC(C)[C@H]([NH2+]Cc1ccc2c(c1)OCO2)c1cn(CCc2cccc(F)c2O)nn1
REMARK SMILES IDX 16 1 17 2 18 3 29 4 30 5 4 7 2 8 1 9 3 10 5 11 6 14 7 15
REMARK SMILES IDX 8 16 12 17 9 18 11 19 10 20 13 21 15 22 14 23 19 24 20 25
REMARK SMILES IDX 21 26 22 27 27 28 23 29 25 30 24 31 26 32 28 33
REMARK H PARENT 17 6 5 12 5 13 28 34
ROOT
ATOM     1   C13 UNL     1       1.956   0.212  -0.651  1.00  0.00     0.127 A   
ATOM     2   C14 UNL     1       2.319   0.833  -1.829  1.00  0.00     0.045 A   
ATOM     3   N2  UNL     1       2.051  -0.115  -2.780  1.00  0.00    -0.212 N   
ATOM     4   N3  UNL     1       1.715  -1.290  -2.216  1.00  0.00    -0.076 NA  
ATOM     5   N4  UNL     1       1.649  -1.100  -0.908  1.00  0.00    -0.132 NA  
ATOM     6   H18 UNL     1       2.551   1.857  -2.083  1.00  0.00     0.083 HD  
ENDROOT
BRANCH   1   7
ATOM     7   C4  UNL     1       1.627   0.800   0.686  1.00  0.00     0.117 C   
BRANCH   7   8
ATOM     8   C2  UNL     1       2.641   0.457   1.805  1.00  0.00     0.037 C   
ATOM     9   C1  UNL     1       4.037   1.000   1.472  1.00  0.00     0.014 C   
ATOM     10  C3  UNL     1       2.737  -1.034   2.153  1.00  0.00     0.014 C   
ENDBRANCH   7   8
BRANCH   7  11
ATOM     11  N1  UNL     1       0.234   0.347   1.036  1.00  0.00     0.249 N   
ATOM     12  H9  UNL     1       0.236  -0.671   1.181  1.00  0.00     0.199 HD  
ATOM     13  H10 UNL     1      -0.341   0.452   0.175  1.00  0.00     0.199 HD  
BRANCH  11  14
ATOM     14  C5  UNL     1      -0.487   1.042   2.123  1.00  0.00     0.164 C   
BRANCH  14  15
ATOM     15  C6  UNL     1      -1.740   0.299   2.492  1.00  0.00    -0.002 A   
ATOM     16  C7  UNL     1      -1.732  -0.610   3.581  1.00  0.00     0.012 A   
ATOM     17  C11 UNL     1      -2.913   0.456   1.731  1.00  0.00     0.045 A   
ATOM     18  C8  UNL     1      -2.877  -1.339   3.917  1.00  0.00     0.037 A   
ATOM     19  C10 UNL     1      -4.024  -0.280   2.089  1.00  0.00     0.109 A   
ATOM     20  C9  UNL     1      -4.008  -1.151   3.151  1.00  0.00     0.108 A   
ATOM     21  O1  UNL     1      -5.232  -0.247   1.461  1.00  0.00    -0.316 OA  
ATOM     22  O2  UNL     1      -5.202  -1.775   3.329  1.00  0.00    -0.316 OA  
ATOM     23  C12 UNL     1      -5.982  -1.187   2.262  1.00  0.00     0.337 C   
ENDBRANCH  14  15
ENDBRANCH  11  14
ENDBRANCH   7  11
ENDBRANCH   1   7
BRANCH   3  24
ATOM     24  C15 UNL     1       1.747   0.116  -4.179  1.00  0.00     0.139 C   
BRANCH  24  25
ATOM     25  C16 UNL     1       0.231   0.201  -4.436  1.00  0.00     0.060 C   
BRANCH  25  26
ATOM     26  C17 UNL     1      -0.424   1.401  -3.780  1.00  0.00    -0.013 A   
ATOM     27  C18 UNL     1      -0.489   2.599  -4.517  1.00  0.00     0.006 A   
ATOM     28  C22 UNL     1      -0.913   1.415  -2.462  1.00  0.00     0.110 A   
ATOM     29  C19 UNL     1      -1.004   3.772  -3.955  1.00  0.00     0.004 A   
ATOM     30  C21 UNL     1      -1.393   2.601  -1.900  1.00  0.00     0.153 A   
ATOM     31  C20 UNL     1      -1.448   3.777  -2.636  1.00  0.00     0.042 A   
ATOM     32  F1  UNL     1      -1.763   2.621  -0.611  1.00  0.00    -0.204 F   
BRANCH  28  33
ATOM     33  O3  UNL     1      -0.908   0.317  -1.637  1.00  0.00    -0.358 OA  
ATOM     34  H26 UNL     1      -0.719  -0.484  -2.170  1.00  0.00     0.218 HD  
ENDBRANCH  28  33
ENDBRANCH  25  26
ENDBRANCH  24  25
ENDBRANCH   3  24
TORSDOF 9
