REMARK SMILES CC(C)[C@H]([NH2+]Cc1ccc2c(c1)OCO2)c1cn(C[C@H](O)c2ccccn2)nn1
REMARK SMILES IDX 16 1 17 2 18 3 28 4 29 5 4 7 2 8 1 9 3 10 5 11 6 14 7 15
REMARK SMILES IDX 8 16 12 17 9 18 11 19 10 20 13 21 15 22 14 23 19 24 20 25
REMARK SMILES IDX 21 26 22 28 23 29 27 30 24 31 26 32 25 33
REMARK H PARENT 17 6 5 12 5 13 21 27
ROOT
ATOM     1   C13 UNL     1       1.684  -0.386   0.617  1.00  0.00     0.127 A   
ATOM     2   C14 UNL     1       2.121   0.712  -0.090  1.00  0.00     0.045 A   
ATOM     3   N2  UNL     1       1.739   0.452  -1.374  1.00  0.00    -0.209 N   
ATOM     4   N4  UNL     1       1.149  -0.754  -1.464  1.00  0.00    -0.076 NA  
ATOM     5   N5  UNL     1       1.114  -1.277  -0.250  1.00  0.00    -0.132 NA  
ATOM     6   H18 UNL     1       2.604   1.639   0.190  1.00  0.00     0.083 HD  
ENDROOT
BRANCH   1   7
ATOM     7   C4  UNL     1       1.676  -0.632   2.091  1.00  0.00     0.117 C   
BRANCH   7   8
ATOM     8   C2  UNL     1       2.252  -2.003   2.523  1.00  0.00     0.037 C   
ATOM     9   C1  UNL     1       3.695  -2.179   2.025  1.00  0.00     0.014 C   
ATOM     10  C3  UNL     1       2.242  -2.183   4.047  1.00  0.00     0.014 C   
ENDBRANCH   7   8
BRANCH   7  11
ATOM     11  N1  UNL     1       0.289  -0.404   2.640  1.00  0.00     0.249 N   
ATOM     12  H9  UNL     1       0.323  -0.272   3.656  1.00  0.00     0.199 HD  
ATOM     13  H10 UNL     1      -0.031   0.496   2.257  1.00  0.00     0.199 HD  
BRANCH  11  14
ATOM     14  C5  UNL     1      -0.773  -1.403   2.311  1.00  0.00     0.164 C   
BRANCH  14  15
ATOM     15  C6  UNL     1      -2.122  -0.868   2.710  1.00  0.00    -0.002 A   
ATOM     16  C7  UNL     1      -2.619  -1.064   4.020  1.00  0.00     0.012 A   
ATOM     17  C11 UNL     1      -2.868  -0.112   1.789  1.00  0.00     0.045 A   
ATOM     18  C8  UNL     1      -3.847  -0.519   4.406  1.00  0.00     0.037 A   
ATOM     19  C10 UNL     1      -4.071   0.416   2.204  1.00  0.00     0.109 A   
ATOM     20  C9  UNL     1      -4.548   0.218   3.477  1.00  0.00     0.108 A   
ATOM     21  O1  UNL     1      -4.905   1.178   1.449  1.00  0.00    -0.316 OA  
ATOM     22  O2  UNL     1      -5.745   0.824   3.681  1.00  0.00    -0.316 OA  
ATOM     23  C12 UNL     1      -5.987   1.404   2.382  1.00  0.00     0.337 C   
ENDBRANCH  14  15
ENDBRANCH  11  14
ENDBRANCH   7  11
ENDBRANCH   1   7
BRANCH   3  24
ATOM     24  C15 UNL     1       1.878   1.294  -2.544  1.00  0.00     0.172 C   
BRANCH  24  25
ATOM     25  C16 UNL     1       1.002   2.548  -2.496  1.00  0.00     0.182 C   
BRANCH  25  26
ATOM     26  O3  UNL     1       1.517   3.454  -1.501  1.00  0.00    -0.385 OA  
ATOM     27  H22 UNL     1       0.722   3.783  -1.028  1.00  0.00     0.211 HD  
ENDBRANCH  25  26
BRANCH  25  28
ATOM     28  C17 UNL     1      -0.473   2.285  -2.243  1.00  0.00     0.071 A   
ATOM     29  C18 UNL     1      -1.261   1.648  -3.199  1.00  0.00     0.026 A   
ATOM     30  N3  UNL     1      -0.977   2.744  -1.060  1.00  0.00    -0.258 NA  
ATOM     31  C19 UNL     1      -2.619   1.483  -2.943  1.00  0.00     0.004 A   
ATOM     32  C21 UNL     1      -2.306   2.589  -0.858  1.00  0.00     0.111 A   
ATOM     33  C20 UNL     1      -3.156   1.966  -1.756  1.00  0.00     0.020 A   
ENDBRANCH  25  28
ENDBRANCH  24  25
ENDBRANCH   3  24
TORSDOF 9
