REMARK SMILES CC(C)[C@H]([NH2+]Cc1ccc2c(c1)OCO2)c1cn(C[C@@H](O)c2ccccn2)nn1
REMARK SMILES IDX 16 1 17 2 18 3 28 4 29 5 4 7 2 8 1 9 3 10 5 11 6 14 7 15
REMARK SMILES IDX 8 16 12 17 9 18 11 19 10 20 13 21 15 22 14 23 19 24 20 25
REMARK SMILES IDX 21 26 22 28 23 29 27 30 24 31 26 32 25 33
REMARK H PARENT 17 6 5 12 5 13 21 27
ROOT
ATOM     1   C13 UNL     1      -0.052   0.856  -0.327  1.00  0.00     0.127 A   
ATOM     2   C14 UNL     1      -0.687   1.415   0.758  1.00  0.00     0.045 A   
ATOM     3   N2  UNL     1      -1.717   2.124   0.207  1.00  0.00    -0.209 N   
ATOM     4   N4  UNL     1      -1.739   1.982  -1.131  1.00  0.00    -0.076 NA  
ATOM     5   N5  UNL     1      -0.716   1.217  -1.472  1.00  0.00    -0.132 NA  
ATOM     6   H18 UNL     1      -0.500   1.398   1.824  1.00  0.00     0.083 HD  
ENDROOT
BRANCH   1   7
ATOM     7   C4  UNL     1       1.150  -0.029  -0.416  1.00  0.00     0.117 C   
BRANCH   7   8
ATOM     8   C2  UNL     1       2.474   0.778  -0.329  1.00  0.00     0.037 C   
ATOM     9   C1  UNL     1       2.732   1.688  -1.536  1.00  0.00     0.014 C   
ATOM     10  C3  UNL     1       3.682  -0.139  -0.104  1.00  0.00     0.014 C   
ENDBRANCH   7   8
BRANCH   7  11
ATOM     11  N1  UNL     1       1.114  -0.837  -1.692  1.00  0.00     0.249 N   
ATOM     12  H9  UNL     1       2.042  -1.195  -1.930  1.00  0.00     0.199 HD  
ATOM     13  H10 UNL     1       0.840  -0.180  -2.437  1.00  0.00     0.199 HD  
BRANCH  11  14
ATOM     14  C5  UNL     1       0.136  -1.965  -1.726  1.00  0.00     0.164 C   
BRANCH  14  15
ATOM     15  C6  UNL     1       0.549  -3.113  -0.847  1.00  0.00    -0.002 A   
ATOM     16  C7  UNL     1       1.618  -3.961  -1.228  1.00  0.00     0.012 A   
ATOM     17  C11 UNL     1      -0.104  -3.334   0.379  1.00  0.00     0.045 A   
ATOM     18  C8  UNL     1       2.035  -5.008  -0.400  1.00  0.00     0.037 A   
ATOM     19  C10 UNL     1       0.334  -4.373   1.172  1.00  0.00     0.109 A   
ATOM     20  C9  UNL     1       1.373  -5.187   0.794  1.00  0.00     0.108 A   
ATOM     21  O1  UNL     1      -0.179  -4.713   2.383  1.00  0.00    -0.316 OA  
ATOM     22  O2  UNL     1       1.644  -6.145   1.719  1.00  0.00    -0.316 OA  
ATOM     23  C12 UNL     1       0.636  -5.862   2.713  1.00  0.00     0.337 C   
ENDBRANCH  14  15
ENDBRANCH  11  14
ENDBRANCH   7  11
ENDBRANCH   1   7
BRANCH   3  24
ATOM     24  C15 UNL     1      -2.686   2.957   0.880  1.00  0.00     0.172 C   
BRANCH  24  25
ATOM     25  C16 UNL     1      -2.535   4.442   0.553  1.00  0.00     0.182 C   
BRANCH  25  26
ATOM     26  O3  UNL     1      -3.522   5.165   1.305  1.00  0.00    -0.385 OA  
ATOM     27  H22 UNL     1      -3.042   5.594   2.044  1.00  0.00     0.211 HD  
ENDBRANCH  25  26
BRANCH  25  28
ATOM     28  C17 UNL     1      -1.156   4.955   0.923  1.00  0.00     0.071 A   
ATOM     29  C18 UNL     1      -0.240   5.322  -0.059  1.00  0.00     0.026 A   
ATOM     30  N3  UNL     1      -0.880   5.038   2.251  1.00  0.00    -0.258 NA  
ATOM     31  C19 UNL     1       1.006   5.800   0.335  1.00  0.00     0.004 A   
ATOM     32  C21 UNL     1       0.334   5.518   2.602  1.00  0.00     0.111 A   
ATOM     33  C20 UNL     1       1.301   5.904   1.690  1.00  0.00     0.020 A   
ENDBRANCH  25  28
ENDBRANCH  24  25
ENDBRANCH   3  24
TORSDOF 9
