REMARK SMILES Cc1cc(F)ccc1CCn1cc([C@@H]([NH2+]Cc2ccc3c(c2)OCO3)C(C)C)nn1
REMARK SMILES IDX 11 1 12 2 13 3 29 4 30 5 10 7 9 8 8 9 2 10 3 11 4 12 7 13
REMARK SMILES IDX 6 14 1 15 5 16 14 17 15 18 16 21 17 22 18 23 22 24 19 25
REMARK SMILES IDX 21 26 20 27 23 28 25 29 24 30 26 31 27 32 28 33
REMARK H PARENT 12 6 15 19 15 20
ROOT
ATOM     1   N1  UNL     1       3.626  -0.128  -0.430  1.00  0.00    -0.212 N   
ATOM     2   C10 UNL     1       2.919  -1.147  -1.006  1.00  0.00     0.045 A   
ATOM     3   C11 UNL     1       1.849  -0.512  -1.594  1.00  0.00     0.127 A   
ATOM     4   N3  UNL     1       1.957   0.839  -1.388  1.00  0.00    -0.132 NA  
ATOM     5   N4  UNL     1       3.058   1.062  -0.691  1.00  0.00    -0.076 NA  
ATOM     6   H11 UNL     1       3.195  -2.186  -0.889  1.00  0.00     0.083 HD  
ENDROOT
BRANCH   1   7
ATOM     7   C9  UNL     1       4.757  -0.230   0.470  1.00  0.00     0.139 C   
BRANCH   7   8
ATOM     8   C8  UNL     1       4.392   0.076   1.928  1.00  0.00     0.057 C   
BRANCH   8   9
ATOM     9   C7  UNL     1       3.240  -0.762   2.460  1.00  0.00    -0.043 A   
ATOM     10  C2  UNL     1       2.002  -0.193   2.842  1.00  0.00    -0.045 A   
ATOM     11  C3  UNL     1       0.967  -1.038   3.276  1.00  0.00     0.043 A   
ATOM     12  C4  UNL     1       1.157  -2.414   3.333  1.00  0.00     0.123 A   
ATOM     13  C6  UNL     1       3.415  -2.157   2.558  1.00  0.00     0.007 A   
ATOM     14  C5  UNL     1       2.374  -2.981   2.986  1.00  0.00     0.039 A   
ATOM     15  C1  UNL     1       1.757   1.292   2.822  1.00  0.00     0.045 C   
ATOM     16  F1  UNL     1       0.147  -3.202   3.721  1.00  0.00    -0.207 F   
ENDBRANCH   8   9
ENDBRANCH   7   8
ENDBRANCH   1   7
BRANCH   3  17
ATOM     17  C12 UNL     1       0.621  -1.064  -2.243  1.00  0.00     0.117 C   
BRANCH  17  18
ATOM     18  N2  UNL     1      -0.591  -0.325  -1.743  1.00  0.00     0.249 N   
ATOM     19  H13 UNL     1      -1.412  -0.479  -2.335  1.00  0.00     0.199 HD  
ATOM     20  H14 UNL     1      -0.369   0.681  -1.803  1.00  0.00     0.199 HD  
BRANCH  18  21
ATOM     21  C13 UNL     1      -0.950  -0.612  -0.324  1.00  0.00     0.164 C   
BRANCH  21  22
ATOM     22  C14 UNL     1      -2.111   0.234   0.113  1.00  0.00    -0.002 A   
ATOM     23  C15 UNL     1      -3.427  -0.286   0.089  1.00  0.00     0.012 A   
ATOM     24  C19 UNL     1      -1.897   1.566   0.513  1.00  0.00     0.045 A   
ATOM     25  C16 UNL     1      -4.518   0.506   0.468  1.00  0.00     0.037 A   
ATOM     26  C18 UNL     1      -2.994   2.319   0.879  1.00  0.00     0.109 A   
ATOM     27  C17 UNL     1      -4.267   1.804   0.858  1.00  0.00     0.108 A   
ATOM     28  O1  UNL     1      -2.964   3.615   1.291  1.00  0.00    -0.316 OA  
ATOM     29  O2  UNL     1      -5.200   2.710   1.256  1.00  0.00    -0.316 OA  
ATOM     30  C20 UNL     1      -4.370   3.860   1.531  1.00  0.00     0.337 C   
ENDBRANCH  21  22
ENDBRANCH  18  21
ENDBRANCH  17  18
BRANCH  17  31
ATOM     31  C21 UNL     1       0.689  -1.026  -3.790  1.00  0.00     0.037 C   
ATOM     32  C22 UNL     1       0.636   0.382  -4.394  1.00  0.00     0.014 C   
ATOM     33  C23 UNL     1      -0.408  -1.892  -4.421  1.00  0.00     0.014 C   
ENDBRANCH  17  31
ENDBRANCH   3  17
TORSDOF 8
