REMARK SMILES CC(C)(C)[C@H]([NH2+]Cc1ccc2c(c1)OCO2)c1cn(Cc2n[nH]c3ccccc23)nn1
REMARK SMILES IDX 17 1 18 2 19 3 30 4 31 5 5 7 2 8 1 9 3 10 4 11 6 12 7 15
REMARK SMILES IDX 8 16 9 17 13 18 10 19 12 20 11 21 14 22 16 23 15 24 20 25
REMARK SMILES IDX 21 26 22 27 29 28 23 29 24 30 28 31 25 32 27 33 26 34
REMARK H PARENT 18 6 6 13 6 14 23 35
ROOT
ATOM     1   C14 UNL     1      -0.520   0.424  -1.200  1.00  0.00     0.127 A   
ATOM     2   C15 UNL     1      -0.892   1.746  -1.294  1.00  0.00     0.046 A   
ATOM     3   N2  UNL     1      -2.040   1.822  -0.550  1.00  0.00    -0.206 N   
ATOM     4   N5  UNL     1      -2.355   0.617  -0.032  1.00  0.00    -0.076 NA  
ATOM     5   N6  UNL     1      -1.431  -0.245  -0.421  1.00  0.00    -0.132 NA  
ATOM     6   H20 UNL     1      -0.463   2.615  -1.774  1.00  0.00     0.083 HD  
ENDROOT
BRANCH   1   7
ATOM     7   C5  UNL     1       0.689  -0.303  -1.706  1.00  0.00     0.120 C   
BRANCH   7   8
ATOM     8   C2  UNL     1       0.484  -1.006  -3.093  1.00  0.00     0.010 C   
ATOM     9   C1  UNL     1       0.022   0.023  -4.150  1.00  0.00     0.017 C   
ATOM     10  C3  UNL     1       1.821  -1.597  -3.597  1.00  0.00     0.017 C   
ATOM     11  C4  UNL     1      -0.556  -2.143  -3.037  1.00  0.00     0.017 C   
ENDBRANCH   7   8
BRANCH   7  12
ATOM     12  N1  UNL     1       1.113  -1.310  -0.662  1.00  0.00     0.250 N   
ATOM     13  H11 UNL     1       1.725  -2.036  -1.040  1.00  0.00     0.199 HD  
ATOM     14  H12 UNL     1       0.253  -1.790  -0.354  1.00  0.00     0.199 HD  
BRANCH  12  15
ATOM     15  C6  UNL     1       1.748  -0.735   0.557  1.00  0.00     0.164 C   
BRANCH  15  16
ATOM     16  C7  UNL     1       2.058  -1.823   1.546  1.00  0.00    -0.002 A   
ATOM     17  C8  UNL     1       3.330  -2.443   1.557  1.00  0.00     0.012 A   
ATOM     18  C12 UNL     1       1.060  -2.273   2.427  1.00  0.00     0.045 A   
ATOM     19  C9  UNL     1       3.611  -3.490   2.442  1.00  0.00     0.037 A   
ATOM     20  C11 UNL     1       1.369  -3.307   3.286  1.00  0.00     0.109 A   
ATOM     21  C10 UNL     1       2.609  -3.898   3.293  1.00  0.00     0.108 A   
ATOM     22  O1  UNL     1       0.525  -3.860   4.195  1.00  0.00    -0.316 OA  
ATOM     23  O2  UNL     1       2.701  -4.897   4.209  1.00  0.00    -0.316 OA  
ATOM     24  C13 UNL     1       1.384  -4.854   4.799  1.00  0.00     0.337 C   
ENDBRANCH  15  16
ENDBRANCH  12  15
ENDBRANCH   7  12
ENDBRANCH   1   7
BRANCH   3  25
ATOM     25  C16 UNL     1      -2.866   2.986  -0.291  1.00  0.00     0.192 C   
BRANCH  25  26
ATOM     26  C17 UNL     1      -2.209   3.855   0.723  1.00  0.00     0.087 A   
ATOM     27  N3  UNL     1      -1.450   4.894   0.340  1.00  0.00    -0.186 NA  
ATOM     28  C23 UNL     1      -2.260   3.729   2.139  1.00  0.00     0.022 A   
ATOM     29  N4  UNL     1      -1.076   5.463   1.503  1.00  0.00    -0.238 N   
ATOM     30  C18 UNL     1      -1.504   4.793   2.617  1.00  0.00     0.057 A   
ATOM     31  C22 UNL     1      -2.855   2.846   3.059  1.00  0.00     0.012 A   
ATOM     32  C19 UNL     1      -1.306   5.037   3.979  1.00  0.00     0.026 A   
ATOM     33  C21 UNL     1      -2.667   3.071   4.428  1.00  0.00     0.001 A   
ATOM     34  C20 UNL     1      -1.905   4.149   4.878  1.00  0.00     0.002 A   
ATOM     35  H23 UNL     1      -0.518   6.311   1.471  1.00  0.00     0.176 HD  
ENDBRANCH  25  26
ENDBRANCH   3  25
TORSDOF 7
