REMARK SMILES CCOc1ccccc1Cn1cc([C@@H]([NH2+]Cc2ccc3c(c2)OCO3)C2CCCC2)nn1
REMARK SMILES IDX 11 1 12 2 13 3 31 4 32 5 10 7 9 8 4 9 5 10 6 11 8 12 7 13
REMARK SMILES IDX 3 14 2 15 1 16 14 17 15 18 16 21 17 22 18 23 22 24 19 25
REMARK SMILES IDX 21 26 20 27 23 28 25 29 24 30 26 31 27 32 30 33 28 34 29 35
REMARK H PARENT 12 6 15 19 15 20
ROOT
ATOM     1   N1  UNL     1       1.473   0.373   2.670  1.00  0.00    -0.208 N   
ATOM     2   C10 UNL     1       1.393  -0.491   1.613  1.00  0.00     0.046 A   
ATOM     3   C11 UNL     1       2.200   0.081   0.657  1.00  0.00     0.127 A   
ATOM     4   N3  UNL     1       2.776   1.215   1.167  1.00  0.00    -0.132 NA  
ATOM     5   N4  UNL     1       2.328   1.382   2.401  1.00  0.00    -0.076 NA  
ATOM     6   H12 UNL     1       0.747  -1.358   1.623  1.00  0.00     0.083 HD  
ENDROOT
BRANCH   1   7
ATOM     7   C9  UNL     1       0.732   0.335   3.918  1.00  0.00     0.172 C   
BRANCH   7   8
ATOM     8   C8  UNL     1      -0.538   1.145   3.812  1.00  0.00     0.002 A   
ATOM     9   C3  UNL     1      -1.714   0.602   3.260  1.00  0.00     0.080 A   
ATOM     10  C4  UNL     1      -2.861   1.394   3.161  1.00  0.00     0.034 A   
ATOM     11  C5  UNL     1      -2.848   2.717   3.609  1.00  0.00     0.003 A   
ATOM     12  C7  UNL     1      -0.538   2.481   4.251  1.00  0.00     0.008 A   
ATOM     13  C6  UNL     1      -1.688   3.260   4.152  1.00  0.00     0.001 A   
BRANCH   9  14
ATOM     14  O1  UNL     1      -1.628  -0.695   2.822  1.00  0.00    -0.346 OA  
BRANCH  14  15
ATOM     15  C2  UNL     1      -2.859  -1.376   2.571  1.00  0.00     0.164 C   
ATOM     16  C1  UNL     1      -2.534  -2.833   2.295  1.00  0.00     0.035 C   
ENDBRANCH  14  15
ENDBRANCH   9  14
ENDBRANCH   7   8
ENDBRANCH   1   7
BRANCH   3  17
ATOM     17  C12 UNL     1       2.415  -0.278  -0.774  1.00  0.00     0.117 C   
BRANCH  17  18
ATOM     18  N2  UNL     1       2.372   0.965  -1.631  1.00  0.00     0.249 N   
ATOM     19  H14 UNL     1       3.067   1.613  -1.238  1.00  0.00     0.199 HD  
ATOM     20  H15 UNL     1       2.655   0.753  -2.590  1.00  0.00     0.199 HD  
BRANCH  18  21
ATOM     21  C13 UNL     1       1.072   1.708  -1.655  1.00  0.00     0.164 C   
BRANCH  21  22
ATOM     22  C14 UNL     1      -0.082   0.877  -2.145  1.00  0.00    -0.002 A   
ATOM     23  C15 UNL     1      -1.100   0.476  -1.246  1.00  0.00     0.012 A   
ATOM     24  C19 UNL     1      -0.139   0.463  -3.486  1.00  0.00     0.045 A   
ATOM     25  C16 UNL     1      -2.156  -0.337  -1.672  1.00  0.00     0.037 A   
ATOM     26  C18 UNL     1      -1.192  -0.341  -3.872  1.00  0.00     0.109 A   
ATOM     27  C17 UNL     1      -2.171  -0.731  -2.991  1.00  0.00     0.108 A   
ATOM     28  O2  UNL     1      -1.389  -0.837  -5.121  1.00  0.00    -0.316 OA  
ATOM     29  O3  UNL     1      -3.108  -1.522  -3.576  1.00  0.00    -0.316 OA  
ATOM     30  C20 UNL     1      -2.625  -1.564  -4.936  1.00  0.00     0.337 C   
ENDBRANCH  21  22
ENDBRANCH  18  21
ENDBRANCH  17  18
BRANCH  17  31
ATOM     31  C21 UNL     1       3.733  -1.049  -0.984  1.00  0.00     0.043 C   
ATOM     32  C22 UNL     1       5.032  -0.249  -0.863  1.00  0.00     0.010 C   
ATOM     33  C25 UNL     1       3.875  -1.697  -2.367  1.00  0.00     0.010 C   
ATOM     34  C23 UNL     1       6.079  -1.208  -1.417  1.00  0.00     0.001 C   
ATOM     35  C24 UNL     1       5.367  -1.995  -2.517  1.00  0.00     0.001 C   
ENDBRANCH  17  31
ENDBRANCH   3  17
TORSDOF 9
