REMARK SMILES Cc1ccc([C@@H](O)Cn2cc([C@@H]([NH2+]Cc3ccc4c(c3)OCO4)C(C)C)nn2)c(C)c1
REMARK SMILES IDX 9 1 10 2 11 3 27 4 28 5 8 7 6 8 5 9 2 10 3 11 31 12 4 13
REMARK SMILES IDX 29 14 1 15 30 16 7 17 12 19 13 20 14 23 15 24 16 25 20 26
REMARK SMILES IDX 17 27 19 28 18 29 21 30 23 31 22 32 24 33 25 34 26 35
REMARK H PARENT 10 6 7 18 13 21 13 22
ROOT
ATOM     1   N1  UNL     1       2.472   0.189  -1.200  1.00  0.00    -0.209 N   
ATOM     2   C8  UNL     1       1.535   0.995  -0.618  1.00  0.00     0.045 A   
ATOM     3   C9  UNL     1       1.778   0.865   0.730  1.00  0.00     0.127 A   
ATOM     4   N3  UNL     1       2.824  -0.002   0.917  1.00  0.00    -0.132 NA  
ATOM     5   N4  UNL     1       3.236  -0.411  -0.271  1.00  0.00    -0.076 NA  
ATOM     6   H10 UNL     1       0.807   1.549  -1.194  1.00  0.00     0.083 HD  
ENDROOT
BRANCH   1   7
ATOM     7   C7  UNL     1       2.663  -0.084  -2.606  1.00  0.00     0.170 C   
BRANCH   7   8
ATOM     8   C6  UNL     1       2.057  -1.424  -3.044  1.00  0.00     0.164 C   
BRANCH   8   9
ATOM     9   C5  UNL     1       0.558  -1.524  -2.792  1.00  0.00    -0.015 A   
ATOM     10  C2  UNL     1      -2.240  -1.602  -2.380  1.00  0.00    -0.051 A   
ATOM     11  C3  UNL     1      -1.686  -0.714  -3.303  1.00  0.00     0.004 A   
ATOM     12  C24 UNL     1      -1.391  -2.467  -1.680  1.00  0.00     0.007 A   
ATOM     13  C4  UNL     1      -0.307  -0.675  -3.506  1.00  0.00     0.007 A   
ATOM     14  C22 UNL     1       0.003  -2.433  -1.865  1.00  0.00    -0.045 A   
ATOM     15  C1  UNL     1      -3.728  -1.676  -2.205  1.00  0.00     0.044 C   
ATOM     16  C23 UNL     1       0.855  -3.393  -1.077  1.00  0.00     0.045 C   
ENDBRANCH   8   9
BRANCH   8  17
ATOM     17  O1  UNL     1       2.314  -1.600  -4.441  1.00  0.00    -0.387 OA  
ATOM     18  H7  UNL     1       1.615  -2.176  -4.803  1.00  0.00     0.211 HD  
ENDBRANCH   8  17
ENDBRANCH   7   8
ENDBRANCH   1   7
BRANCH   3  19
ATOM     19  C10 UNL     1       1.064   1.424   1.920  1.00  0.00     0.117 C   
BRANCH  19  20
ATOM     20  N2  UNL     1       0.946   0.339   2.973  1.00  0.00     0.249 N   
ATOM     21  H12 UNL     1       1.902  -0.007   3.133  1.00  0.00     0.199 HD  
ATOM     22  H13 UNL     1       0.603   0.723   3.857  1.00  0.00     0.199 HD  
BRANCH  20  23
ATOM     23  C11 UNL     1       0.098  -0.840   2.615  1.00  0.00     0.164 C   
BRANCH  23  24
ATOM     24  C12 UNL     1      -1.372  -0.524   2.637  1.00  0.00    -0.002 A   
ATOM     25  C13 UNL     1      -2.075  -0.493   3.864  1.00  0.00     0.012 A   
ATOM     26  C17 UNL     1      -2.053  -0.225   1.444  1.00  0.00     0.045 A   
ATOM     27  C14 UNL     1      -3.438  -0.176   3.905  1.00  0.00     0.037 A   
ATOM     28  C16 UNL     1      -3.395   0.089   1.520  1.00  0.00     0.109 A   
ATOM     29  C15 UNL     1      -4.068   0.109   2.716  1.00  0.00     0.108 A   
ATOM     30  O2  UNL     1      -4.197   0.407   0.472  1.00  0.00    -0.316 OA  
ATOM     31  O3  UNL     1      -5.379   0.433   2.569  1.00  0.00    -0.316 OA  
ATOM     32  C18 UNL     1      -5.464   0.602   1.141  1.00  0.00     0.337 C   
ENDBRANCH  23  24
ENDBRANCH  20  23
ENDBRANCH  19  20
BRANCH  19  33
ATOM     33  C19 UNL     1       1.800   2.653   2.526  1.00  0.00     0.037 C   
ATOM     34  C20 UNL     1       1.900   3.796   1.503  1.00  0.00     0.014 C   
ATOM     35  C21 UNL     1       1.110   3.196   3.785  1.00  0.00     0.014 C   
ENDBRANCH  19  33
ENDBRANCH   3  19
TORSDOF 9
