REMARK SMILES Cc1ccc([C@H](O)Cn2cc([C@@H]([NH2+]Cc3ccc4c(c3)OCO4)C(C)C)nn2)c(C)c1
REMARK SMILES IDX 9 1 10 2 11 3 27 4 28 5 8 7 6 8 5 9 2 10 3 11 31 12 4 13
REMARK SMILES IDX 29 14 1 15 30 16 7 17 12 19 13 20 14 23 15 24 16 25 20 26
REMARK SMILES IDX 17 27 19 28 18 29 21 30 23 31 22 32 24 33 25 34 26 35
REMARK H PARENT 10 6 7 18 13 21 13 22
ROOT
ATOM     1   N1  UNL     1      -1.353  -0.412  -0.409  1.00  0.00    -0.209 N   
ATOM     2   C8  UNL     1      -2.132   0.698  -0.582  1.00  0.00     0.045 A   
ATOM     3   C9  UNL     1      -1.359   1.524  -1.366  1.00  0.00     0.127 A   
ATOM     4   N3  UNL     1      -0.165   0.902  -1.635  1.00  0.00    -0.132 NA  
ATOM     5   N4  UNL     1      -0.172  -0.278  -1.040  1.00  0.00    -0.076 NA  
ATOM     6   H10 UNL     1      -3.107   0.798  -0.123  1.00  0.00     0.083 HD  
ENDROOT
BRANCH   1   7
ATOM     7   C7  UNL     1      -1.646  -1.605   0.362  1.00  0.00     0.170 C   
BRANCH   7   8
ATOM     8   C6  UNL     1      -0.922  -1.584   1.709  1.00  0.00     0.164 C   
BRANCH   8   9
ATOM     9   C5  UNL     1      -0.996  -2.942   2.385  1.00  0.00    -0.015 A   
ATOM     10  C2  UNL     1      -1.220  -5.461   3.647  1.00  0.00    -0.051 A   
ATOM     11  C3  UNL     1      -2.271  -4.545   3.713  1.00  0.00     0.004 A   
ATOM     12  C24 UNL     1      -0.070  -5.124   2.925  1.00  0.00     0.007 A   
ATOM     13  C4  UNL     1      -2.161  -3.303   3.091  1.00  0.00     0.007 A   
ATOM     14  C22 UNL     1       0.055  -3.878   2.286  1.00  0.00    -0.045 A   
ATOM     15  C1  UNL     1      -1.351  -6.810   4.292  1.00  0.00     0.044 C   
ATOM     16  C23 UNL     1       1.326  -3.585   1.533  1.00  0.00     0.045 C   
ENDBRANCH   8   9
BRANCH   8  17
ATOM     17  O1  UNL     1      -1.508  -0.582   2.554  1.00  0.00    -0.387 OA  
ATOM     18  H7  UNL     1      -1.238  -0.797   3.467  1.00  0.00     0.211 HD  
ENDBRANCH   8  17
ENDBRANCH   7   8
ENDBRANCH   1   7
BRANCH   3  19
ATOM     19  C10 UNL     1      -1.574   2.924  -1.848  1.00  0.00     0.117 C   
BRANCH  19  20
ATOM     20  N2  UNL     1      -0.275   3.677  -1.679  1.00  0.00     0.249 N   
ATOM     21  H12 UNL     1      -0.240   4.538  -2.228  1.00  0.00     0.199 HD  
ATOM     22  H13 UNL     1       0.465   3.063  -2.058  1.00  0.00     0.199 HD  
BRANCH  20  23
ATOM     23  C11 UNL     1       0.097   4.000  -0.273  1.00  0.00     0.164 C   
BRANCH  23  24
ATOM     24  C12 UNL     1       1.494   4.546  -0.215  1.00  0.00    -0.002 A   
ATOM     25  C13 UNL     1       1.735   5.932  -0.352  1.00  0.00     0.012 A   
ATOM     26  C17 UNL     1       2.580   3.664  -0.081  1.00  0.00     0.045 A   
ATOM     27  C14 UNL     1       3.039   6.437  -0.348  1.00  0.00     0.037 A   
ATOM     28  C16 UNL     1       3.852   4.194  -0.078  1.00  0.00     0.109 A   
ATOM     29  C15 UNL     1       4.075   5.541  -0.210  1.00  0.00     0.108 A   
ATOM     30  O2  UNL     1       5.003   3.486   0.043  1.00  0.00    -0.316 OA  
ATOM     31  O3  UNL     1       5.396   5.852  -0.189  1.00  0.00    -0.316 OA  
ATOM     32  C18 UNL     1       5.982   4.548   0.010  1.00  0.00     0.337 C   
ENDBRANCH  23  24
ENDBRANCH  20  23
ENDBRANCH  19  20
BRANCH  19  33
ATOM     33  C19 UNL     1      -2.016   2.978  -3.337  1.00  0.00     0.037 C   
ATOM     34  C20 UNL     1      -2.194   4.415  -3.850  1.00  0.00     0.014 C   
ATOM     35  C21 UNL     1      -3.339   2.228  -3.554  1.00  0.00     0.014 C   
ENDBRANCH  19  33
ENDBRANCH   3  19
TORSDOF 9
