REMARK SMILES O=C(Cn1cc([C@@H]([NH2+]Cc2ccc3c(c2)OCO3)C2CCCC2)nn1)c1ccccc1O
REMARK SMILES IDX 4 1 5 2 6 3 24 4 25 5 3 7 2 8 1 9 26 10 27 11 31 12 28 13
REMARK SMILES IDX 30 14 29 15 32 16 7 18 8 19 9 22 10 23 11 24 15 25 12 26
REMARK SMILES IDX 14 27 13 28 16 29 18 30 17 31 19 32 20 33 23 34 21 35 22 36
REMARK H PARENT 5 6 32 17 8 20 8 21
ROOT
ATOM     1   N1  UNL     1      -0.126   1.220  -2.393  1.00  0.00    -0.204 N   
ATOM     2   C3  UNL     1      -0.728   1.838  -1.332  1.00  0.00     0.046 A   
ATOM     3   C4  UNL     1      -0.085   1.308  -0.236  1.00  0.00     0.127 A   
ATOM     4   N3  UNL     1       0.888   0.442  -0.658  1.00  0.00    -0.132 NA  
ATOM     5   N4  UNL     1       0.859   0.403  -1.980  1.00  0.00    -0.076 NA  
ATOM     6   H3  UNL     1      -1.547   2.529  -1.458  1.00  0.00     0.083 HD  
ENDROOT
BRANCH   1   7
ATOM     7   C2  UNL     1      -0.433   1.351  -3.806  1.00  0.00     0.215 C   
BRANCH   7   8
ATOM     8   C1  UNL     1      -1.537   0.393  -4.205  1.00  0.00     0.184 C   
ATOM     9   O1  UNL     1      -2.361  -0.045  -3.391  1.00  0.00    -0.292 OA  
BRANCH   8  10
ATOM     10  C19 UNL     1      -1.620  -0.047  -5.627  1.00  0.00     0.049 A   
ATOM     11  C20 UNL     1      -2.195  -1.304  -5.883  1.00  0.00     0.014 A   
ATOM     12  C24 UNL     1      -1.166   0.727  -6.702  1.00  0.00     0.082 A   
ATOM     13  C21 UNL     1      -2.287  -1.789  -7.190  1.00  0.00     0.001 A   
ATOM     14  C23 UNL     1      -1.260   0.240  -8.011  1.00  0.00     0.034 A   
ATOM     15  C22 UNL     1      -1.817  -1.018  -8.252  1.00  0.00     0.003 A   
BRANCH  12  16
ATOM     16  O4  UNL     1      -0.648   1.976  -6.490  1.00  0.00    -0.360 OA  
ATOM     17  H27 UNL     1      -0.420   2.374  -7.356  1.00  0.00     0.218 HD  
ENDBRANCH  12  16
ENDBRANCH   8  10
ENDBRANCH   7   8
ENDBRANCH   1   7
BRANCH   3  18
ATOM     18  C5  UNL     1      -0.311   1.486   1.229  1.00  0.00     0.117 C   
BRANCH  18  19
ATOM     19  N2  UNL     1       0.044   0.208   1.944  1.00  0.00     0.249 N   
ATOM     20  H5  UNL     1       0.428   0.369   2.870  1.00  0.00     0.199 HD  
ATOM     21  H6  UNL     1       0.804  -0.224   1.401  1.00  0.00     0.199 HD  
BRANCH  19  22
ATOM     22  C6  UNL     1      -1.048  -0.791   2.033  1.00  0.00     0.164 C   
BRANCH  22  23
ATOM     23  C7  UNL     1      -0.523  -2.123   2.496  1.00  0.00    -0.002 A   
ATOM     24  C8  UNL     1      -0.359  -3.182   1.571  1.00  0.00     0.012 A   
ATOM     25  C12 UNL     1      -0.150  -2.314   3.836  1.00  0.00     0.045 A   
ATOM     26  C9  UNL     1       0.148  -4.421   1.978  1.00  0.00     0.037 A   
ATOM     27  C11 UNL     1       0.352  -3.546   4.204  1.00  0.00     0.109 A   
ATOM     28  C10 UNL     1       0.495  -4.571   3.301  1.00  0.00     0.108 A   
ATOM     29  O2  UNL     1       0.761  -3.894   5.455  1.00  0.00    -0.316 OA  
ATOM     30  O3  UNL     1       1.006  -5.693   3.870  1.00  0.00    -0.316 OA  
ATOM     31  C13 UNL     1       1.159  -5.266   5.243  1.00  0.00     0.337 C   
ENDBRANCH  22  23
ENDBRANCH  19  22
ENDBRANCH  18  19
BRANCH  18  32
ATOM     32  C14 UNL     1       0.487   2.676   1.793  1.00  0.00     0.043 C   
ATOM     33  C15 UNL     1       2.008   2.511   1.854  1.00  0.00     0.010 C   
ATOM     34  C18 UNL     1       0.123   3.051   3.236  1.00  0.00     0.010 C   
ATOM     35  C16 UNL     1       2.441   3.672   2.740  1.00  0.00     0.001 C   
ATOM     36  C17 UNL     1       1.324   3.833   3.769  1.00  0.00     0.001 C   
ENDBRANCH  18  32
ENDBRANCH   3  18
TORSDOF 9
