REMARK SMILES CC(C)C[C@H]([NH2+]Cc1ccc2c(c1)OCO2)c1cn(Cc2c[nH]c3ncccc23)nn1
REMARK SMILES IDX 17 1 18 2 19 3 30 4 31 5 5 7 4 8 2 9 1 10 3 11 6 12 7 15
REMARK SMILES IDX 8 16 9 17 13 18 10 19 12 20 11 21 14 22 16 23 15 24 20 25
REMARK SMILES IDX 21 26 22 27 29 28 23 29 24 30 28 31 25 32 27 33 26 34
REMARK H PARENT 18 6 6 13 6 14 23 35
ROOT
ATOM     1   C14 UNL     1       0.217  -0.056  -0.476  1.00  0.00     0.127 A   
ATOM     2   C15 UNL     1       0.494  -1.179  -1.224  1.00  0.00     0.046 A   
ATOM     3   N2  UNL     1       0.946  -0.679  -2.417  1.00  0.00    -0.208 N   
ATOM     4   N5  UNL     1       1.039   0.665  -2.365  1.00  0.00    -0.076 NA  
ATOM     5   N6  UNL     1       0.573   1.059  -1.191  1.00  0.00    -0.132 NA  
ATOM     6   H20 UNL     1       0.369  -2.239  -1.055  1.00  0.00     0.083 HD  
ENDROOT
BRANCH   1   7
ATOM     7   C5  UNL     1      -0.344   0.101   0.897  1.00  0.00     0.114 C   
BRANCH   7   8
ATOM     8   C4  UNL     1      -1.875   0.283   0.894  1.00  0.00     0.064 C   
BRANCH   8   9
ATOM     9   C2  UNL     1      -2.686  -0.914   0.353  1.00  0.00    -0.012 C   
ATOM     10  C1  UNL     1      -2.449  -2.192   1.160  1.00  0.00     0.007 C   
ATOM     11  C3  UNL     1      -4.179  -0.571   0.360  1.00  0.00     0.007 C   
ENDBRANCH   8   9
ENDBRANCH   7   8
BRANCH   7  12
ATOM     12  N1  UNL     1       0.238   1.333   1.551  1.00  0.00     0.249 N   
ATOM     13  H11 UNL     1      -0.319   1.627   2.359  1.00  0.00     0.199 HD  
ATOM     14  H12 UNL     1       0.169   2.094   0.859  1.00  0.00     0.199 HD  
BRANCH  12  15
ATOM     15  C6  UNL     1       1.667   1.230   1.955  1.00  0.00     0.164 C   
BRANCH  15  16
ATOM     16  C7  UNL     1       2.130   2.518   2.576  1.00  0.00    -0.002 A   
ATOM     17  C8  UNL     1       2.174   2.662   3.983  1.00  0.00     0.012 A   
ATOM     18  C12 UNL     1       2.473   3.608   1.757  1.00  0.00     0.045 A   
ATOM     19  C9  UNL     1       2.564   3.872   4.569  1.00  0.00     0.037 A   
ATOM     20  C11 UNL     1       2.849   4.787   2.366  1.00  0.00     0.109 A   
ATOM     21  C10 UNL     1       2.894   4.915   3.732  1.00  0.00     0.108 A   
ATOM     22  O1  UNL     1       3.204   5.932   1.726  1.00  0.00    -0.316 OA  
ATOM     23  O2  UNL     1       3.287   6.155   4.124  1.00  0.00    -0.316 OA  
ATOM     24  C13 UNL     1       3.501   6.794   2.847  1.00  0.00     0.337 C   
ENDBRANCH  15  16
ENDBRANCH  12  15
ENDBRANCH   7  12
ENDBRANCH   1   7
BRANCH   3  25
ATOM     25  C16 UNL     1       1.300  -1.407  -3.627  1.00  0.00     0.171 C   
BRANCH  25  26
ATOM     26  C17 UNL     1       0.127  -2.176  -4.143  1.00  0.00    -0.004 A   
ATOM     27  C18 UNL     1       0.015  -3.556  -4.235  1.00  0.00     0.079 A   
ATOM     28  C23 UNL     1      -1.099  -1.630  -4.646  1.00  0.00     0.021 A   
ATOM     29  N3  UNL     1      -1.219  -3.855  -4.758  1.00  0.00    -0.305 N   
ATOM     30  C19 UNL     1      -1.910  -2.702  -5.002  1.00  0.00     0.129 A   
ATOM     31  C22 UNL     1      -1.625  -0.340  -4.839  1.00  0.00     0.014 A   
ATOM     32  N4  UNL     1      -3.155  -2.659  -5.505  1.00  0.00    -0.241 NA  
ATOM     33  C21 UNL     1      -2.912  -0.237  -5.372  1.00  0.00     0.021 A   
ATOM     34  C20 UNL     1      -3.611  -1.398  -5.678  1.00  0.00     0.113 A   
ATOM     35  H24 UNL     1      -1.587  -4.775  -4.957  1.00  0.00     0.154 HD  
ENDBRANCH  25  26
ENDBRANCH   3  25
TORSDOF 8
