REMARK SMILES Cc1nn(C)c(C)c1Cn1cc([C@@H]([NH2+]Cc2ccc3c(c2)OCO3)C2CCCC2)nn1
REMARK SMILES IDX 10 1 11 2 12 3 30 4 31 5 9 7 8 8 2 9 3 10 4 11 6 12 1 13
REMARK SMILES IDX 5 14 7 15 13 16 14 17 15 20 16 21 17 22 21 23 18 24 20 25
REMARK SMILES IDX 19 26 22 27 24 28 23 29 25 30 26 31 29 32 27 33 28 34
REMARK H PARENT 11 6 14 18 14 19
ROOT
ATOM     1   N3  UNL     1      -2.181   0.889  -0.520  1.00  0.00    -0.208 N   
ATOM     2   C8  UNL     1      -0.838   0.688  -0.698  1.00  0.00     0.046 A   
ATOM     3   C9  UNL     1      -0.712  -0.682  -0.747  1.00  0.00     0.127 A   
ATOM     4   N5  UNL     1      -1.954  -1.254  -0.663  1.00  0.00    -0.132 NA  
ATOM     5   N6  UNL     1      -2.844  -0.284  -0.520  1.00  0.00    -0.076 NA  
ATOM     6   H12 UNL     1      -0.126   1.502  -0.697  1.00  0.00     0.083 HD  
ENDROOT
BRANCH   1   7
ATOM     7   C7  UNL     1      -2.864   2.136  -0.207  1.00  0.00     0.173 C   
BRANCH   7   8
ATOM     8   C6  UNL     1      -2.401   2.635   1.122  1.00  0.00     0.013 A   
ATOM     9   C2  UNL     1      -2.695   2.068   2.394  1.00  0.00     0.062 A   
ATOM     10  N1  UNL     1      -2.039   2.693   3.373  1.00  0.00    -0.187 NA  
ATOM     11  N2  UNL     1      -1.440   3.732   2.771  1.00  0.00    -0.232 N   
ATOM     12  C4  UNL     1      -1.578   3.717   1.405  1.00  0.00     0.031 A   
ATOM     13  C1  UNL     1      -3.555   0.899   2.714  1.00  0.00     0.069 C   
ATOM     14  C3  UNL     1      -0.712   4.689   3.574  1.00  0.00     0.159 C   
ATOM     15  C5  UNL     1      -0.939   4.729   0.523  1.00  0.00     0.064 C   
ENDBRANCH   7   8
ENDBRANCH   1   7
BRANCH   3  16
ATOM     16  C10 UNL     1       0.505  -1.544  -0.766  1.00  0.00     0.117 C   
BRANCH  16  17
ATOM     17  N4  UNL     1       0.377  -2.662   0.249  1.00  0.00     0.249 N   
ATOM     18  H14 UNL     1       1.190  -3.279   0.200  1.00  0.00     0.199 HD  
ATOM     19  H15 UNL     1      -0.448  -3.214  -0.024  1.00  0.00     0.199 HD  
BRANCH  17  20
ATOM     20  C11 UNL     1       0.174  -2.254   1.677  1.00  0.00     0.164 C   
BRANCH  20  21
ATOM     21  C12 UNL     1       1.240  -1.335   2.205  1.00  0.00    -0.002 A   
ATOM     22  C13 UNL     1       0.902  -0.019   2.606  1.00  0.00     0.012 A   
ATOM     23  C17 UNL     1       2.576  -1.762   2.296  1.00  0.00     0.045 A   
ATOM     24  C14 UNL     1       1.879   0.866   3.075  1.00  0.00     0.037 A   
ATOM     25  C16 UNL     1       3.514  -0.863   2.759  1.00  0.00     0.109 A   
ATOM     26  C15 UNL     1       3.177   0.414   3.135  1.00  0.00     0.108 A   
ATOM     27  O1  UNL     1       4.844  -1.111   2.895  1.00  0.00    -0.316 OA  
ATOM     28  O2  UNL     1       4.251   1.131   3.557  1.00  0.00    -0.316 OA  
ATOM     29  C18 UNL     1       5.302   0.148   3.441  1.00  0.00     0.337 C   
ENDBRANCH  20  21
ENDBRANCH  17  20
ENDBRANCH  16  17
BRANCH  16  30
ATOM     30  C19 UNL     1       0.744  -2.171  -2.155  1.00  0.00     0.043 C   
ATOM     31  C20 UNL     1       1.985  -3.062  -2.247  1.00  0.00     0.010 C   
ATOM     32  C23 UNL     1       1.014  -1.125  -3.248  1.00  0.00     0.010 C   
ATOM     33  C21 UNL     1       2.204  -3.200  -3.745  1.00  0.00     0.001 C   
ATOM     34  C22 UNL     1       1.817  -1.847  -4.330  1.00  0.00     0.001 C   
ENDBRANCH  16  30
ENDBRANCH   3  16
TORSDOF 7
