REMARK SMILES C/C(=C/c1ccco1)Cn1cc([C@H](CC(C)C)[NH2+]Cc2ccc3c(c2)OCO3)nn1
REMARK SMILES IDX 10 1 11 2 12 3 29 4 30 5 9 7 2 8 1 9 3 10 4 11 5 12 8 13
REMARK SMILES IDX 6 14 7 15 13 16 14 17 15 18 16 19 17 20 18 21 19 24 20 25
REMARK SMILES IDX 21 26 25 27 22 28 24 29 23 30 26 31 28 32 27 33
REMARK H PARENT 11 6 18 22 18 23
ROOT
ATOM     1   N1  UNL     1      -1.148   0.842  -0.531  1.00  0.00    -0.208 N   
ATOM     2   C9  UNL     1       0.125   0.725  -0.045  1.00  0.00     0.046 A   
ATOM     3   C10 UNL     1       0.923   1.043  -1.119  1.00  0.00     0.127 A   
ATOM     4   N3  UNL     1       0.131   1.309  -2.208  1.00  0.00    -0.132 NA  
ATOM     5   N4  UNL     1      -1.132   1.191  -1.835  1.00  0.00    -0.076 NA  
ATOM     6   H10 UNL     1       0.329   0.424   0.973  1.00  0.00     0.083 HD  
ENDROOT
BRANCH   1   7
ATOM     7   C8  UNL     1      -2.406   0.657   0.176  1.00  0.00     0.164 C   
BRANCH   7   8
ATOM     8   C2  UNL     1      -2.858  -0.789   0.185  1.00  0.00    -0.051 C   
ATOM     9   C1  UNL     1      -3.505  -1.240  -1.105  1.00  0.00     0.041 C   
BRANCH   8  10
ATOM     10  C3  UNL     1      -2.785  -1.651   1.220  1.00  0.00     0.034 C   
BRANCH  10  11
ATOM     11  C4  UNL     1      -2.207  -1.375   2.492  1.00  0.00     0.081 A   
ATOM     12  C5  UNL     1      -2.362  -2.099   3.670  1.00  0.00     0.036 A   
ATOM     13  O1  UNL     1      -1.351  -0.332   2.770  1.00  0.00    -0.318 OA  
ATOM     14  C6  UNL     1      -1.595  -1.473   4.679  1.00  0.00     0.028 A   
ATOM     15  C7  UNL     1      -1.003  -0.393   4.078  1.00  0.00     0.136 A   
ENDBRANCH  10  11
ENDBRANCH   8  10
ENDBRANCH   7   8
ENDBRANCH   1   7
BRANCH   3  16
ATOM     16  C11 UNL     1       2.402   1.025  -1.291  1.00  0.00     0.114 C   
BRANCH  16  17
ATOM     17  C12 UNL     1       3.024   2.425  -1.467  1.00  0.00     0.064 C   
BRANCH  17  18
ATOM     18  C13 UNL     1       3.046   3.363  -0.240  1.00  0.00    -0.012 C   
ATOM     19  C14 UNL     1       1.697   4.015   0.058  1.00  0.00     0.007 C   
ATOM     20  C15 UNL     1       3.611   2.694   1.012  1.00  0.00     0.007 C   
ENDBRANCH  17  18
ENDBRANCH  16  17
BRANCH  16  21
ATOM     21  N2  UNL     1       2.713   0.238  -2.561  1.00  0.00     0.249 N   
ATOM     22  H21 UNL     1       3.426   0.719  -3.118  1.00  0.00     0.199 HD  
ATOM     23  H22 UNL     1       1.852   0.275  -3.131  1.00  0.00     0.199 HD  
BRANCH  21  24
ATOM     24  C16 UNL     1       3.113  -1.184  -2.381  1.00  0.00     0.164 C   
BRANCH  24  25
ATOM     25  C17 UNL     1       2.110  -2.029  -1.646  1.00  0.00    -0.002 A   
ATOM     26  C18 UNL     1       0.858  -2.339  -2.229  1.00  0.00     0.012 A   
ATOM     27  C22 UNL     1       2.405  -2.503  -0.355  1.00  0.00     0.045 A   
ATOM     28  C19 UNL     1      -0.091  -3.099  -1.534  1.00  0.00     0.037 A   
ATOM     29  C21 UNL     1       1.447  -3.249   0.300  1.00  0.00     0.109 A   
ATOM     30  C20 UNL     1       0.233  -3.537  -0.270  1.00  0.00     0.108 A   
ATOM     31  O2  UNL     1       1.575  -3.777   1.546  1.00  0.00    -0.316 OA  
ATOM     32  O3  UNL     1      -0.561  -4.277   0.547  1.00  0.00    -0.316 OA  
ATOM     33  C23 UNL     1       0.307  -4.453   1.688  1.00  0.00     0.337 C   
ENDBRANCH  24  25
ENDBRANCH  21  24
ENDBRANCH  16  21
ENDBRANCH   3  16
TORSDOF 10
