REMARK SMILES C/C(=C\c1ccco1)Cn1cc([C@H](CC(C)C)[NH2+]Cc2ccc3c(c2)OCO3)nn1
REMARK SMILES IDX 10 1 11 2 12 3 29 4 30 5 9 7 2 8 1 9 3 10 4 11 5 12 8 13
REMARK SMILES IDX 6 14 7 15 13 16 14 17 15 18 16 19 17 20 18 21 19 24 20 25
REMARK SMILES IDX 21 26 25 27 22 28 24 29 23 30 26 31 28 32 27 33
REMARK H PARENT 11 6 18 22 18 23
ROOT
ATOM     1   N1  UNL     1      -2.343  -1.065  -0.008  1.00  0.00    -0.208 N   
ATOM     2   C9  UNL     1      -1.555  -0.018   0.382  1.00  0.00     0.046 A   
ATOM     3   C10 UNL     1      -1.633   0.866  -0.671  1.00  0.00     0.127 A   
ATOM     4   N3  UNL     1      -2.458   0.348  -1.636  1.00  0.00    -0.132 NA  
ATOM     5   N4  UNL     1      -2.878  -0.836  -1.223  1.00  0.00    -0.076 NA  
ATOM     6   H10 UNL     1      -1.020  -0.012   1.322  1.00  0.00     0.083 HD  
ENDROOT
BRANCH   1   7
ATOM     7   C8  UNL     1      -2.608  -2.310   0.698  1.00  0.00     0.164 C   
BRANCH   7   8
ATOM     8   C2  UNL     1      -1.499  -3.321   0.494  1.00  0.00    -0.051 C   
ATOM     9   C1  UNL     1      -0.269  -3.113   1.341  1.00  0.00     0.041 C   
BRANCH   8  10
ATOM     10  C3  UNL     1      -1.671  -4.341  -0.372  1.00  0.00     0.034 C   
BRANCH  10  11
ATOM     11  C4  UNL     1      -0.681  -5.318  -0.679  1.00  0.00     0.081 A   
ATOM     12  C5  UNL     1      -0.856  -6.535  -1.328  1.00  0.00     0.036 A   
ATOM     13  O1  UNL     1       0.664  -5.195  -0.404  1.00  0.00    -0.318 OA  
ATOM     14  C6  UNL     1       0.405  -7.169  -1.424  1.00  0.00     0.028 A   
ATOM     15  C7  UNL     1       1.299  -6.308  -0.843  1.00  0.00     0.136 A   
ENDBRANCH  10  11
ENDBRANCH   8  10
ENDBRANCH   7   8
ENDBRANCH   1   7
BRANCH   3  16
ATOM     16  C11 UNL     1      -0.945   2.165  -0.916  1.00  0.00     0.114 C   
BRANCH  16  17
ATOM     17  C12 UNL     1      -1.851   3.380  -0.637  1.00  0.00     0.064 C   
BRANCH  17  18
ATOM     18  C13 UNL     1      -2.334   3.526   0.821  1.00  0.00    -0.012 C   
ATOM     19  C14 UNL     1      -3.260   4.740   0.938  1.00  0.00     0.007 C   
ATOM     20  C15 UNL     1      -1.176   3.664   1.811  1.00  0.00     0.007 C   
ENDBRANCH  17  18
ENDBRANCH  16  17
BRANCH  16  21
ATOM     21  N2  UNL     1      -0.524   2.265  -2.371  1.00  0.00     0.249 N   
ATOM     22  H21 UNL     1      -1.374   2.098  -2.928  1.00  0.00     0.199 HD  
ATOM     23  H22 UNL     1      -0.205   3.215  -2.580  1.00  0.00     0.199 HD  
BRANCH  21  24
ATOM     24  C16 UNL     1       0.503   1.284  -2.837  1.00  0.00     0.164 C   
BRANCH  24  25
ATOM     25  C17 UNL     1       1.811   1.391  -2.104  1.00  0.00    -0.002 A   
ATOM     26  C18 UNL     1       2.270   0.311  -1.313  1.00  0.00     0.012 A   
ATOM     27  C22 UNL     1       2.583   2.563  -2.188  1.00  0.00     0.045 A   
ATOM     28  C19 UNL     1       3.475   0.397  -0.606  1.00  0.00     0.037 A   
ATOM     29  C21 UNL     1       3.762   2.617  -1.473  1.00  0.00     0.109 A   
ATOM     30  C20 UNL     1       4.196   1.565  -0.705  1.00  0.00     0.108 A   
ATOM     31  O2  UNL     1       4.611   3.677  -1.430  1.00  0.00    -0.316 OA  
ATOM     32  O3  UNL     1       5.377   1.827  -0.089  1.00  0.00    -0.316 OA  
ATOM     33  C23 UNL     1       5.649   3.162  -0.564  1.00  0.00     0.337 C   
ENDBRANCH  24  25
ENDBRANCH  21  24
ENDBRANCH  16  21
ENDBRANCH   3  16
TORSDOF 10
