REMARK SMILES CC(C)[C@H]([NH2+]Cc1ccc2c(c1)OCO2)c1cn(CCc2c(O)cccc2Cl)nn1
REMARK SMILES IDX 16 1 17 2 18 3 29 4 30 5 4 7 2 8 1 9 3 10 5 11 6 14 7 15
REMARK SMILES IDX 8 16 12 17 9 18 11 19 10 20 13 21 15 22 14 23 19 24 20 25
REMARK SMILES IDX 21 26 22 27 27 28 24 29 26 30 25 31 28 32 23 33
REMARK H PARENT 17 6 5 12 5 13 23 34
ROOT
ATOM     1   C13 UNL     1       0.382  -1.444  -0.784  1.00  0.00     0.127 A   
ATOM     2   C14 UNL     1      -0.589  -2.068  -1.534  1.00  0.00     0.045 A   
ATOM     3   N2  UNL     1      -1.339  -2.734  -0.606  1.00  0.00    -0.212 N   
ATOM     4   N3  UNL     1      -0.840  -2.565   0.632  1.00  0.00    -0.076 NA  
ATOM     5   N4  UNL     1       0.219  -1.781   0.535  1.00  0.00    -0.132 NA  
ATOM     6   H18 UNL     1      -0.836  -2.070  -2.586  1.00  0.00     0.083 HD  
ENDROOT
BRANCH   1   7
ATOM     7   C4  UNL     1       1.459  -0.479  -1.166  1.00  0.00     0.117 C   
BRANCH   7   8
ATOM     8   C2  UNL     1       2.722  -1.194  -1.711  1.00  0.00     0.037 C   
ATOM     9   C1  UNL     1       3.677  -0.209  -2.397  1.00  0.00     0.014 C   
ATOM     10  C3  UNL     1       3.486  -2.001  -0.654  1.00  0.00     0.014 C   
ENDBRANCH   7   8
BRANCH   7  11
ATOM     11  N1  UNL     1       1.814   0.393   0.008  1.00  0.00     0.249 N   
ATOM     12  H9  UNL     1       1.885  -0.231   0.826  1.00  0.00     0.199 HD  
ATOM     13  H10 UNL     1       2.729   0.838  -0.098  1.00  0.00     0.199 HD  
BRANCH  11  14
ATOM     14  C5  UNL     1       0.802   1.432   0.352  1.00  0.00     0.164 C   
BRANCH  14  15
ATOM     15  C6  UNL     1       1.207   2.163   1.601  1.00  0.00    -0.002 A   
ATOM     16  C7  UNL     1       0.861   1.637   2.869  1.00  0.00     0.012 A   
ATOM     17  C11 UNL     1       1.975   3.336   1.521  1.00  0.00     0.045 A   
ATOM     18  C8  UNL     1       1.263   2.279   4.046  1.00  0.00     0.037 A   
ATOM     19  C10 UNL     1       2.354   3.944   2.701  1.00  0.00     0.109 A   
ATOM     20  C9  UNL     1       2.009   3.431   3.927  1.00  0.00     0.108 A   
ATOM     21  O1  UNL     1       3.093   5.079   2.802  1.00  0.00    -0.316 OA  
ATOM     22  O2  UNL     1       2.485   4.180   4.955  1.00  0.00    -0.316 OA  
ATOM     23  C12 UNL     1       3.143   5.245   4.238  1.00  0.00     0.337 C   
ENDBRANCH  14  15
ENDBRANCH  11  14
ENDBRANCH   7  11
ENDBRANCH   1   7
BRANCH   3  24
ATOM     24  C15 UNL     1      -2.545  -3.510  -0.813  1.00  0.00     0.139 C   
BRANCH  24  25
ATOM     25  C16 UNL     1      -3.815  -2.673  -0.656  1.00  0.00     0.061 C   
BRANCH  25  26
ATOM     26  C17 UNL     1      -4.090  -1.764  -1.839  1.00  0.00     0.002 A   
ATOM     27  C18 UNL     1      -4.620  -2.316  -3.018  1.00  0.00     0.076 A   
ATOM     28  C22 UNL     1      -3.844  -0.381  -1.821  1.00  0.00     0.046 A   
ATOM     29  C19 UNL     1      -4.920  -1.529  -4.129  1.00  0.00     0.033 A   
ATOM     30  C21 UNL     1      -4.143   0.414  -2.934  1.00  0.00     0.021 A   
ATOM     31  C20 UNL     1      -4.685  -0.158  -4.083  1.00  0.00     0.004 A   
ATOM     32  CL1 UNL     1      -3.133   0.415  -0.461  1.00  0.00    -0.084 Cl  
BRANCH  27  33
ATOM     33  O3  UNL     1      -4.836  -3.665  -3.065  1.00  0.00    -0.361 OA  
ATOM     34  H23 UNL     1      -5.320  -3.885  -3.882  1.00  0.00     0.218 HD  
ENDBRANCH  27  33
ENDBRANCH  25  26
ENDBRANCH  24  25
ENDBRANCH   3  24
TORSDOF 9
