REMARK SMILES Cc1ncc(CCn2cc([C@H](CC(C)C)[NH2+]Cc3ccc4c(c3)OCO4)nn2)s1
REMARK SMILES IDX 8 1 9 2 10 3 27 4 28 5 7 7 6 8 5 9 2 10 3 11 29 12 4 13 1 14
REMARK SMILES IDX 11 15 12 16 13 17 14 18 15 19 16 20 17 23 18 24 19 25 23 26
REMARK SMILES IDX 20 27 22 28 21 29 24 30 26 31 25 32
REMARK H PARENT 9 6 16 21 16 22
ROOT
ATOM     1   N2  UNL     1      -0.455   0.840  -2.983  1.00  0.00    -0.212 N   
ATOM     2   C7  UNL     1      -1.070   0.066  -2.034  1.00  0.00     0.045 A   
ATOM     3   C8  UNL     1      -0.037  -0.338  -1.213  1.00  0.00     0.127 A   
ATOM     4   N4  UNL     1       1.149   0.079  -1.761  1.00  0.00    -0.132 NA  
ATOM     5   N5  UNL     1       0.880   0.801  -2.839  1.00  0.00    -0.076 NA  
ATOM     6   H9  UNL     1      -2.146  -0.004  -1.963  1.00  0.00     0.083 HD  
ENDROOT
BRANCH   1   7
ATOM     7   C6  UNL     1      -1.081   1.874  -3.789  1.00  0.00     0.139 C   
BRANCH   7   8
ATOM     8   C5  UNL     1      -0.979   3.270  -3.145  1.00  0.00     0.066 C   
BRANCH   8   9
ATOM     9   C4  UNL     1      -1.355   3.251  -1.690  1.00  0.00     0.011 A   
ATOM     10  C2  UNL     1      -2.452   3.011   0.454  1.00  0.00     0.075 A   
ATOM     11  N1  UNL     1      -1.158   2.782   0.596  1.00  0.00    -0.254 NA  
ATOM     12  S1  UNL     1      -2.976   3.337  -1.155  1.00  0.00    -0.078 S   
ATOM     13  C3  UNL     1      -0.523   3.083  -0.600  1.00  0.00     0.123 A   
ATOM     14  C1  UNL     1      -3.452   2.965   1.558  1.00  0.00     0.075 C   
ENDBRANCH   8   9
ENDBRANCH   7   8
ENDBRANCH   1   7
BRANCH   3  15
ATOM     15  C9  UNL     1      -0.048  -0.953   0.152  1.00  0.00     0.114 C   
BRANCH  15  16
ATOM     16  C10 UNL     1      -1.290  -1.816   0.466  1.00  0.00     0.064 C   
BRANCH  16  17
ATOM     17  C11 UNL     1      -1.216  -3.269  -0.058  1.00  0.00    -0.012 C   
ATOM     18  C12 UNL     1      -2.427  -4.058   0.453  1.00  0.00     0.007 C   
ATOM     19  C13 UNL     1      -1.145  -3.381  -1.579  1.00  0.00     0.007 C   
ENDBRANCH  16  17
ENDBRANCH  15  16
BRANCH  15  20
ATOM     20  N3  UNL     1       0.014   0.151   1.198  1.00  0.00     0.249 N   
ATOM     21  H20 UNL     1      -0.358  -0.173   2.093  1.00  0.00     0.199 HD  
ATOM     22  H21 UNL     1      -0.591   0.940   0.902  1.00  0.00     0.199 HD  
BRANCH  20  23
ATOM     23  C14 UNL     1       1.364   0.737   1.456  1.00  0.00     0.164 C   
BRANCH  23  24
ATOM     24  C15 UNL     1       2.278  -0.205   2.190  1.00  0.00    -0.002 A   
ATOM     25  C16 UNL     1       2.096  -0.448   3.574  1.00  0.00     0.012 A   
ATOM     26  C20 UNL     1       3.303  -0.875   1.500  1.00  0.00     0.045 A   
ATOM     27  C17 UNL     1       2.919  -1.348   4.260  1.00  0.00     0.037 A   
ATOM     28  C19 UNL     1       4.095  -1.757   2.206  1.00  0.00     0.109 A   
ATOM     29  C18 UNL     1       3.908  -1.987   3.546  1.00  0.00     0.108 A   
ATOM     30  O1  UNL     1       5.118  -2.487   1.691  1.00  0.00    -0.316 OA  
ATOM     31  O2  UNL     1       4.792  -2.889   4.045  1.00  0.00    -0.316 OA  
ATOM     32  C21 UNL     1       5.578  -3.185   2.870  1.00  0.00     0.337 C   
ENDBRANCH  23  24
ENDBRANCH  20  23
ENDBRANCH  15  20
ENDBRANCH   3  15
TORSDOF 9
