REMARK SMILES CC(C)C[C@H]([NH2+]Cc1ccc2c(c1)OCO2)c1cn(Cc2ccc3c(c2)CNC3)nn1
REMARK SMILES IDX 17 1 18 2 19 3 30 4 31 5 5 7 4 8 2 9 1 10 3 11 6 12 7 15
REMARK SMILES IDX 8 16 9 17 13 18 10 19 12 20 11 21 14 22 16 23 15 24 20 25
REMARK SMILES IDX 21 26 22 27 26 28 23 29 25 30 24 31 27 32 29 33 28 34
REMARK H PARENT 18 6 6 13 6 14 28 35
ROOT
ATOM     1   C14 UNL     1      -2.140   1.279   1.250  1.00  0.00     0.127 A   
ATOM     2   C15 UNL     1      -2.806   1.545   0.074  1.00  0.00     0.046 A   
ATOM     3   N2  UNL     1      -2.576   2.879  -0.137  1.00  0.00    -0.208 N   
ATOM     4   N4  UNL     1      -1.880   3.414   0.886  1.00  0.00    -0.076 NA  
ATOM     5   N5  UNL     1      -1.599   2.442   1.737  1.00  0.00    -0.132 NA  
ATOM     6   H20 UNL     1      -3.322   0.926  -0.648  1.00  0.00     0.083 HD  
ENDROOT
BRANCH   1   7
ATOM     7   C5  UNL     1      -1.811  -0.012   1.918  1.00  0.00     0.114 C   
BRANCH   7   8
ATOM     8   C4  UNL     1      -2.436  -0.145   3.318  1.00  0.00     0.064 C   
BRANCH   8   9
ATOM     9   C2  UNL     1      -3.979  -0.124   3.349  1.00  0.00    -0.012 C   
ATOM     10  C1  UNL     1      -4.466  -0.232   4.798  1.00  0.00     0.007 C   
ATOM     11  C3  UNL     1      -4.598  -1.246   2.514  1.00  0.00     0.007 C   
ENDBRANCH   8   9
ENDBRANCH   7   8
BRANCH   7  12
ATOM     12  N1  UNL     1      -0.311  -0.101   2.086  1.00  0.00     0.249 N   
ATOM     13  H11 UNL     1      -0.053  -0.811   2.779  1.00  0.00     0.199 HD  
ATOM     14  H12 UNL     1      -0.001   0.805   2.472  1.00  0.00     0.199 HD  
BRANCH  12  15
ATOM     15  C6  UNL     1       0.455  -0.338   0.828  1.00  0.00     0.164 C   
BRANCH  15  16
ATOM     16  C7  UNL     1       1.933  -0.260   1.081  1.00  0.00    -0.002 A   
ATOM     17  C8  UNL     1       2.639   0.937   0.798  1.00  0.00     0.012 A   
ATOM     18  C12 UNL     1       2.618  -1.354   1.639  1.00  0.00     0.045 A   
ATOM     19  C9  UNL     1       4.010   1.041   1.056  1.00  0.00     0.037 A   
ATOM     20  C11 UNL     1       3.970  -1.215   1.883  1.00  0.00     0.109 A   
ATOM     21  C10 UNL     1       4.646  -0.053   1.601  1.00  0.00     0.108 A   
ATOM     22  O1  UNL     1       4.776  -2.170   2.420  1.00  0.00    -0.316 OA  
ATOM     23  O2  UNL     1       5.965  -0.131   1.921  1.00  0.00    -0.316 OA  
ATOM     24  C13 UNL     1       6.048  -1.481   2.428  1.00  0.00     0.337 C   
ENDBRANCH  15  16
ENDBRANCH  12  15
ENDBRANCH   7  12
ENDBRANCH   1   7
BRANCH   3  25
ATOM     25  C16 UNL     1      -2.804   3.640  -1.357  1.00  0.00     0.169 C   
BRANCH  25  26
ATOM     26  C17 UNL     1      -1.734   3.296  -2.368  1.00  0.00    -0.028 A   
ATOM     27  C18 UNL     1      -2.019   2.431  -3.448  1.00  0.00     0.006 A   
ATOM     28  C22 UNL     1      -0.424   3.781  -2.194  1.00  0.00     0.010 A   
ATOM     29  C19 UNL     1      -1.016   2.032  -4.335  1.00  0.00     0.006 A   
ATOM     30  C21 UNL     1       0.560   3.364  -3.072  1.00  0.00    -0.029 A   
ATOM     31  C20 UNL     1       0.270   2.497  -4.122  1.00  0.00    -0.030 A   
ATOM     32  C23 UNL     1       2.008   3.726  -3.115  1.00  0.00     0.117 C   
ATOM     33  C24 UNL     1       1.514   2.237  -4.903  1.00  0.00     0.117 C   
ATOM     34  N3  UNL     1       2.611   2.772  -4.067  1.00  0.00    -0.309 NA  
ATOM     35  H28 UNL     1       3.289   3.254  -4.659  1.00  0.00     0.123 HD  
ENDBRANCH  25  26
ENDBRANCH   3  25
TORSDOF 8
