REMARK SMILES O=C(c1ccc2[nH]ncc2c1)n1cc([C@@H]([NH2+]Cc2ccc3c(c2)OCO3)C2CCCC2)nn1
REMARK SMILES IDX 12 1 13 2 14 3 32 4 33 5 2 6 1 7 3 8 4 9 11 10 5 11 10 12
REMARK SMILES IDX 6 13 9 14 7 15 8 16 15 18 16 19 17 22 18 23 19 24 23 25
REMARK SMILES IDX 20 26 22 27 21 28 24 29 26 30 25 31 27 32 28 33 31 34 29 35
REMARK SMILES IDX 30 36
REMARK H PARENT 7 17 16 20 16 21
ROOT
ATOM     1   N3  UNL     1      -0.107   0.153   2.793  1.00  0.00    -0.143 N   
ATOM     2   C9  UNL     1       0.212  -1.073   2.230  1.00  0.00     0.139 A   
ATOM     3   C10 UNL     1       0.373  -0.826   0.886  1.00  0.00     0.128 A   
ATOM     4   N5  UNL     1       0.133   0.499   0.651  1.00  0.00    -0.131 NA  
ATOM     5   N6  UNL     1      -0.180   1.077   1.803  1.00  0.00    -0.068 NA  
ENDROOT
BRANCH   1   6
ATOM     6   C1  UNL     1      -0.362   0.443   4.144  1.00  0.00     0.271 C   
ATOM     7   O1  UNL     1      -0.340  -0.533   4.894  1.00  0.00    -0.269 OA  
BRANCH   6   8
ATOM     8   C2  UNL     1      -0.662   1.783   4.733  1.00  0.00     0.040 A   
ATOM     9   C3  UNL     1      -1.263   1.808   6.006  1.00  0.00     0.016 A   
ATOM     10  C8  UNL     1      -0.343   2.993   4.094  1.00  0.00     0.025 A   
ATOM     11  C4  UNL     1      -1.580   3.008   6.657  1.00  0.00     0.027 A   
ATOM     12  C7  UNL     1      -0.662   4.210   4.729  1.00  0.00     0.018 A   
ATOM     13  C5  UNL     1      -1.267   4.190   5.981  1.00  0.00     0.056 A   
ATOM     14  C6  UNL     1      -0.522   5.584   4.424  1.00  0.00     0.141 A   
ATOM     15  N1  UNL     1      -1.437   5.509   6.322  1.00  0.00    -0.238 N   
ATOM     16  N2  UNL     1      -0.999   6.375   5.388  1.00  0.00    -0.192 NA  
ATOM     17  H3  UNL     1      -1.842   5.884   7.173  1.00  0.00     0.176 HD  
ENDBRANCH   6   8
ENDBRANCH   1   6
BRANCH   3  18
ATOM     18  C11 UNL     1       0.743  -1.739  -0.242  1.00  0.00     0.117 C   
BRANCH  18  19
ATOM     19  N4  UNL     1       0.343  -1.143  -1.562  1.00  0.00     0.249 N   
ATOM     20  H8  UNL     1       0.588  -0.142  -1.534  1.00  0.00     0.199 HD  
ATOM     21  H9  UNL     1       0.877  -1.542  -2.339  1.00  0.00     0.199 HD  
BRANCH  19  22
ATOM     22  C12 UNL     1      -1.108  -1.227  -1.897  1.00  0.00     0.164 C   
BRANCH  22  23
ATOM     23  C13 UNL     1      -1.353  -0.635  -3.256  1.00  0.00    -0.002 A   
ATOM     24  C14 UNL     1      -1.689   0.732  -3.393  1.00  0.00     0.012 A   
ATOM     25  C18 UNL     1      -1.171  -1.421  -4.407  1.00  0.00     0.045 A   
ATOM     26  C15 UNL     1      -1.852   1.309  -4.657  1.00  0.00     0.037 A   
ATOM     27  C17 UNL     1      -1.337  -0.822  -5.638  1.00  0.00     0.109 A   
ATOM     28  C16 UNL     1      -1.667   0.505  -5.761  1.00  0.00     0.108 A   
ATOM     29  O2  UNL     1      -1.198  -1.439  -6.840  1.00  0.00    -0.316 OA  
ATOM     30  O3  UNL     1      -1.773   0.891  -7.058  1.00  0.00    -0.316 OA  
ATOM     31  C19 UNL     1      -1.486  -0.347  -7.743  1.00  0.00     0.337 C   
ENDBRANCH  22  23
ENDBRANCH  19  22
ENDBRANCH  18  19
BRANCH  18  32
ATOM     32  C20 UNL     1       2.252  -2.065  -0.227  1.00  0.00     0.043 C   
ATOM     33  C21 UNL     1       2.672  -3.196  -1.169  1.00  0.00     0.010 C   
ATOM     34  C24 UNL     1       3.199  -0.934  -0.636  1.00  0.00     0.010 C   
ATOM     35  C22 UNL     1       4.194  -3.072  -1.257  1.00  0.00     0.001 C   
ATOM     36  C23 UNL     1       4.535  -1.645  -0.825  1.00  0.00     0.001 C   
ENDBRANCH  18  32
ENDBRANCH   3  18
TORSDOF 7
