REMARK SMILES CC(C)(C)[C@H]([NH2+]Cc1ccc2c(c1)OCO2)c1cn(Cc2cc(N)cc(CN)c2)nn1
REMARK SMILES IDX 17 1 18 2 19 3 30 4 31 5 5 7 2 8 1 9 3 10 4 11 6 12 7 15
REMARK SMILES IDX 8 16 9 17 13 18 10 19 12 20 11 21 14 22 16 23 15 24 20 25
REMARK SMILES IDX 21 26 22 27 29 28 23 29 26 30 25 31 24 32 27 35 28 36
REMARK H PARENT 18 6 6 13 6 14 24 33 24 34 28 37 28 38
ROOT
ATOM     1   C14 UNL     1      -0.738   0.478   1.846  1.00  0.00     0.127 A   
ATOM     2   C15 UNL     1      -0.670  -0.882   2.038  1.00  0.00     0.046 A   
ATOM     3   N2  UNL     1      -1.960  -1.238   2.325  1.00  0.00    -0.208 N   
ATOM     4   N5  UNL     1      -2.752  -0.150   2.400  1.00  0.00    -0.076 NA  
ATOM     5   N6  UNL     1      -2.014   0.908   2.105  1.00  0.00    -0.132 NA  
ATOM     6   H20 UNL     1       0.115  -1.613   1.896  1.00  0.00     0.083 HD  
ENDROOT
BRANCH   1   7
ATOM     7   C5  UNL     1       0.267   1.424   1.272  1.00  0.00     0.120 C   
BRANCH   7   8
ATOM     8   C2  UNL     1       1.018   2.298   2.336  1.00  0.00     0.010 C   
ATOM     9   C1  UNL     1       2.148   3.108   1.659  1.00  0.00     0.017 C   
ATOM     10  C3  UNL     1       0.090   3.287   3.067  1.00  0.00     0.017 C   
ATOM     11  C4  UNL     1       1.689   1.390   3.392  1.00  0.00     0.017 C   
ENDBRANCH   7   8
BRANCH   7  12
ATOM     12  N1  UNL     1      -0.426   2.307   0.249  1.00  0.00     0.250 N   
ATOM     13  H11 UNL     1       0.177   3.076  -0.040  1.00  0.00     0.199 HD  
ATOM     14  H12 UNL     1      -1.241   2.713   0.728  1.00  0.00     0.199 HD  
BRANCH  12  15
ATOM     15  C6  UNL     1      -0.949   1.618  -0.973  1.00  0.00     0.164 C   
BRANCH  15  16
ATOM     16  C7  UNL     1       0.136   1.062  -1.854  1.00  0.00    -0.002 A   
ATOM     17  C8  UNL     1       1.028   1.932  -2.525  1.00  0.00     0.012 A   
ATOM     18  C12 UNL     1       0.271  -0.329  -2.014  1.00  0.00     0.045 A   
ATOM     19  C9  UNL     1       2.046   1.428  -3.339  1.00  0.00     0.037 A   
ATOM     20  C11 UNL     1       1.282  -0.793  -2.832  1.00  0.00     0.109 A   
ATOM     21  C10 UNL     1       2.146   0.061  -3.473  1.00  0.00     0.108 A   
ATOM     22  O1  UNL     1       1.546  -2.097  -3.109  1.00  0.00    -0.316 OA  
ATOM     23  O2  UNL     1       3.063  -0.596  -4.232  1.00  0.00    -0.316 OA  
ATOM     24  C13 UNL     1       2.670  -1.966  -4.010  1.00  0.00     0.337 C   
ENDBRANCH  15  16
ENDBRANCH  12  15
ENDBRANCH   7  12
ENDBRANCH   1   7
BRANCH   3  25
ATOM     25  C16 UNL     1      -2.532  -2.576   2.316  1.00  0.00     0.169 C   
BRANCH  25  26
ATOM     26  C17 UNL     1      -2.449  -3.139   0.917  1.00  0.00    -0.026 A   
ATOM     27  C18 UNL     1      -3.364  -2.733  -0.070  1.00  0.00     0.028 A   
ATOM     28  C23 UNL     1      -1.377  -3.962   0.551  1.00  0.00     0.010 A   
ATOM     29  C19 UNL     1      -3.224  -3.148  -1.398  1.00  0.00     0.024 A   
ATOM     30  C21 UNL     1      -1.184  -4.336  -0.785  1.00  0.00    -0.032 A   
ATOM     31  C20 UNL     1      -2.102  -3.901  -1.754  1.00  0.00     0.028 A   
BRANCH  29  32
ATOM     32  N3  UNL     1      -4.055  -2.610  -2.390  1.00  0.00    -0.358 N   
ATOM     33  H24 UNL     1      -4.093  -3.182  -3.231  1.00  0.00     0.143 HD  
ATOM     34  H25 UNL     1      -4.992  -2.396  -2.056  1.00  0.00     0.143 HD  
ENDBRANCH  29  32
BRANCH  30  35
ATOM     35  C22 UNL     1       0.027  -5.145  -1.169  1.00  0.00     0.113 C   
BRANCH  35  36
ATOM     36  N4  UNL     1       1.243  -4.354  -1.010  1.00  0.00    -0.327 NA  
ATOM     37  H29 UNL     1       2.040  -4.933  -1.273  1.00  0.00     0.119 HD  
ATOM     38  H30 UNL     1       1.218  -3.595  -1.695  1.00  0.00     0.119 HD  
ENDBRANCH  35  36
ENDBRANCH  30  35
ENDBRANCH  25  26
ENDBRANCH   3  25
TORSDOF 10
