REMARK SMILES CC(C)[C@H]([NH2+]Cc1ccc2c(c1)OCO2)c1cn(Cc2ccc(Cl)o2)nn1
REMARK SMILES IDX 16 1 17 2 18 3 26 4 27 5 4 7 2 8 1 9 3 10 5 11 6 14 7 15
REMARK SMILES IDX 8 16 12 17 9 18 11 19 10 20 13 21 15 22 14 23 19 24 20 25
REMARK SMILES IDX 21 26 25 27 22 28 23 29 24 30
REMARK H PARENT 17 6 5 12 5 13
ROOT
ATOM     1   C13 UNL     1      -1.715   0.296   0.982  1.00  0.00     0.127 A   
ATOM     2   C14 UNL     1      -1.444   1.627   1.201  1.00  0.00     0.046 A   
ATOM     3   N2  UNL     1      -1.223   1.702   2.550  1.00  0.00    -0.206 N   
ATOM     4   N3  UNL     1      -1.391   0.498   3.131  1.00  0.00    -0.076 NA  
ATOM     5   N4  UNL     1      -1.693  -0.371   2.180  1.00  0.00    -0.132 NA  
ATOM     6   H18 UNL     1      -1.335   2.484   0.549  1.00  0.00     0.083 HD  
ENDROOT
BRANCH   1   7
ATOM     7   C4  UNL     1      -1.911  -0.462  -0.290  1.00  0.00     0.117 C   
BRANCH   7   8
ATOM     8   C2  UNL     1      -3.409  -0.592  -0.677  1.00  0.00     0.037 C   
ATOM     9   C1  UNL     1      -3.578  -1.059  -2.128  1.00  0.00     0.014 C   
ATOM     10  C3  UNL     1      -4.225  -1.500   0.251  1.00  0.00     0.014 C   
ENDBRANCH   7   8
BRANCH   7  11
ATOM     11  N1  UNL     1      -1.267  -1.826  -0.209  1.00  0.00     0.249 N   
ATOM     12  H9  UNL     1      -1.660  -2.288   0.622  1.00  0.00     0.199 HD  
ATOM     13  H10 UNL     1      -1.518  -2.390  -1.024  1.00  0.00     0.199 HD  
BRANCH  11  14
ATOM     14  C5  UNL     1       0.221  -1.848  -0.045  1.00  0.00     0.164 C   
BRANCH  14  15
ATOM     15  C6  UNL     1       0.957  -1.188  -1.177  1.00  0.00    -0.002 A   
ATOM     16  C7  UNL     1       1.610   0.052  -0.972  1.00  0.00     0.012 A   
ATOM     17  C11 UNL     1       0.978  -1.778  -2.452  1.00  0.00     0.045 A   
ATOM     18  C8  UNL     1       2.269   0.701  -2.022  1.00  0.00     0.037 A   
ATOM     19  C10 UNL     1       1.636  -1.112  -3.465  1.00  0.00     0.109 A   
ATOM     20  C9  UNL     1       2.262   0.093  -3.257  1.00  0.00     0.108 A   
ATOM     21  O1  UNL     1       1.743  -1.538  -4.750  1.00  0.00    -0.316 OA  
ATOM     22  O2  UNL     1       2.844   0.575  -4.386  1.00  0.00    -0.316 OA  
ATOM     23  C12 UNL     1       2.540  -0.478  -5.326  1.00  0.00     0.337 C   
ENDBRANCH  14  15
ENDBRANCH  11  14
ENDBRANCH   7  11
ENDBRANCH   1   7
BRANCH   3  24
ATOM     24  C15 UNL     1      -0.791   2.854   3.323  1.00  0.00     0.195 C   
BRANCH  24  25
ATOM     25  C16 UNL     1       0.690   2.958   3.300  1.00  0.00     0.080 A   
ATOM     26  C17 UNL     1       1.659   2.932   4.281  1.00  0.00     0.035 A   
ATOM     27  O3  UNL     1       1.274   3.119   2.076  1.00  0.00    -0.301 OA  
ATOM     28  C18 UNL     1       2.903   3.078   3.616  1.00  0.00     0.049 A   
ATOM     29  C19 UNL     1       2.621   3.184   2.272  1.00  0.00     0.147 A   
ATOM     30  CL1 UNL     1       3.747   3.354   0.988  1.00  0.00    -0.056 Cl  
ENDBRANCH  24  25
ENDBRANCH   3  24
TORSDOF 7
