REMARK SMILES CCc1[nH]nc(C)c1Cn1cc([C@@H]([NH2+]Cc2ccc3c(c2)OCO3)C(C)C)nn1
REMARK SMILES IDX 10 1 11 2 12 3 28 4 29 5 9 7 8 8 3 9 4 10 5 11 6 12 7 14
REMARK SMILES IDX 2 15 1 16 13 17 14 18 15 21 16 22 17 23 21 24 18 25 20 26
REMARK SMILES IDX 19 27 22 28 24 29 23 30 25 31 26 32 27 33
REMARK H PARENT 11 6 4 13 14 19 14 20
ROOT
ATOM     1   N3  UNL     1      -0.868   2.317  -0.745  1.00  0.00    -0.208 N   
ATOM     2   C8  UNL     1      -1.521   1.209  -0.276  1.00  0.00     0.046 A   
ATOM     3   C9  UNL     1      -0.629   0.644   0.607  1.00  0.00     0.127 A   
ATOM     4   N5  UNL     1       0.499   1.423   0.667  1.00  0.00    -0.132 NA  
ATOM     5   N6  UNL     1       0.341   2.442  -0.161  1.00  0.00    -0.076 NA  
ATOM     6   H12 UNL     1      -2.501   0.924  -0.632  1.00  0.00     0.083 HD  
ENDROOT
BRANCH   1   7
ATOM     7   C7  UNL     1      -1.299   3.255  -1.773  1.00  0.00     0.173 C   
BRANCH   7   8
ATOM     8   C6  UNL     1      -1.404   2.572  -3.095  1.00  0.00     0.013 A   
ATOM     9   C3  UNL     1      -2.526   2.404  -3.892  1.00  0.00     0.031 A   
ATOM     10  N1  UNL     1      -2.102   1.708  -4.993  1.00  0.00    -0.242 N   
ATOM     11  N2  UNL     1      -0.806   1.381  -4.950  1.00  0.00    -0.189 NA  
ATOM     12  C4  UNL     1      -0.353   1.953  -3.832  1.00  0.00     0.062 A   
ATOM     13  H6  UNL     1      -2.644   1.418  -5.802  1.00  0.00     0.175 HD  
ATOM     14  C5  UNL     1       1.092   1.866  -3.495  1.00  0.00     0.069 C   
BRANCH   9  15
ATOM     15  C2  UNL     1      -3.943   2.843  -3.750  1.00  0.00     0.050 C   
ATOM     16  C1  UNL     1      -4.794   1.786  -3.065  1.00  0.00     0.010 C   
ENDBRANCH   9  15
ENDBRANCH   7   8
ENDBRANCH   1   7
BRANCH   3  17
ATOM     17  C10 UNL     1      -0.688  -0.629   1.390  1.00  0.00     0.117 C   
BRANCH  17  18
ATOM     18  N4  UNL     1       0.697  -1.185   1.585  1.00  0.00     0.249 N   
ATOM     19  H14 UNL     1       1.294  -0.395   1.872  1.00  0.00     0.199 HD  
ATOM     20  H15 UNL     1       0.737  -1.868   2.347  1.00  0.00     0.199 HD  
BRANCH  18  21
ATOM     21  C11 UNL     1       1.318  -1.780   0.368  1.00  0.00     0.164 C   
BRANCH  21  22
ATOM     22  C12 UNL     1       2.716  -2.245   0.667  1.00  0.00    -0.002 A   
ATOM     23  C13 UNL     1       2.972  -3.601   0.977  1.00  0.00     0.012 A   
ATOM     24  C17 UNL     1       3.772  -1.317   0.688  1.00  0.00     0.045 A   
ATOM     25  C14 UNL     1       4.265  -4.032   1.296  1.00  0.00     0.037 A   
ATOM     26  C16 UNL     1       5.033  -1.775   1.009  1.00  0.00     0.109 A   
ATOM     27  C15 UNL     1       5.273  -3.094   1.304  1.00  0.00     0.108 A   
ATOM     28  O1  UNL     1       6.156  -1.014   1.079  1.00  0.00    -0.316 OA  
ATOM     29  O2  UNL     1       6.579  -3.331   1.593  1.00  0.00    -0.316 OA  
ATOM     30  C18 UNL     1       7.142  -2.011   1.431  1.00  0.00     0.337 C   
ENDBRANCH  21  22
ENDBRANCH  18  21
ENDBRANCH  17  18
BRANCH  17  31
ATOM     31  C19 UNL     1      -1.395  -0.445   2.758  1.00  0.00     0.037 C   
ATOM     32  C20 UNL     1      -1.748  -1.793   3.398  1.00  0.00     0.014 C   
ATOM     33  C21 UNL     1      -0.608   0.410   3.758  1.00  0.00     0.014 C   
ENDBRANCH  17  31
ENDBRANCH   3  17
TORSDOF 8
