REMARK SMILES Cc1cc(Cn2cc([C@@H]([NH2+]Cc3ccc4c(c3)OCO4)C3CCCC3)nn2)nn1C
REMARK SMILES IDX 6 1 7 2 8 3 26 4 27 5 5 7 4 8 2 9 3 10 29 11 28 12 1 13
REMARK SMILES IDX 30 14 9 15 10 16 11 19 12 20 13 21 17 22 14 23 16 24 15 25
REMARK SMILES IDX 18 26 20 27 19 28 21 29 22 30 25 31 23 32 24 33
REMARK H PARENT 7 6 10 17 10 18
ROOT
ATOM     1   N1  UNL     1       1.601   2.537  -0.308  1.00  0.00    -0.206 N   
ATOM     2   C6  UNL     1       2.052   1.317  -0.739  1.00  0.00     0.046 A   
ATOM     3   C7  UNL     1       0.903   0.624  -1.041  1.00  0.00     0.127 A   
ATOM     4   N3  UNL     1      -0.184   1.428  -0.804  1.00  0.00    -0.132 NA  
ATOM     5   N4  UNL     1       0.254   2.592  -0.355  1.00  0.00    -0.076 NA  
ATOM     6   H7  UNL     1       3.106   1.072  -0.759  1.00  0.00     0.083 HD  
ENDROOT
BRANCH   1   7
ATOM     7   C5  UNL     1       2.383   3.680   0.125  1.00  0.00     0.191 C   
BRANCH   7   8
ATOM     8   C4  UNL     1       2.889   3.462   1.508  1.00  0.00     0.080 A   
ATOM     9   C2  UNL     1       3.198   3.514   3.707  1.00  0.00     0.027 A   
ATOM     10  C3  UNL     1       2.350   3.959   2.717  1.00  0.00     0.047 A   
ATOM     11  N6  UNL     1       4.176   2.803   3.063  1.00  0.00    -0.233 N   
ATOM     12  N5  UNL     1       3.991   2.729   1.729  1.00  0.00    -0.185 NA  
ATOM     13  C1  UNL     1       3.168   3.724   5.176  1.00  0.00     0.063 C   
ATOM     14  C22 UNL     1       5.329   2.166   3.659  1.00  0.00     0.159 C   
ENDBRANCH   7   8
ENDBRANCH   1   7
BRANCH   3  15
ATOM     15  C8  UNL     1       0.690  -0.784  -1.490  1.00  0.00     0.117 C   
BRANCH  15  16
ATOM     16  N2  UNL     1      -0.549  -1.336  -0.829  1.00  0.00     0.249 N   
ATOM     17  H9  UNL     1      -0.883  -2.188  -1.286  1.00  0.00     0.199 HD  
ATOM     18  H10 UNL     1      -1.288  -0.628  -0.953  1.00  0.00     0.199 HD  
BRANCH  16  19
ATOM     19  C9  UNL     1      -0.425  -1.596   0.633  1.00  0.00     0.164 C   
BRANCH  19  20
ATOM     20  C10 UNL     1      -1.730  -2.095   1.187  1.00  0.00    -0.002 A   
ATOM     21  C11 UNL     1      -1.993  -3.484   1.265  1.00  0.00     0.012 A   
ATOM     22  C15 UNL     1      -2.720  -1.178   1.582  1.00  0.00     0.045 A   
ATOM     23  C12 UNL     1      -3.223  -3.955   1.739  1.00  0.00     0.037 A   
ATOM     24  C14 UNL     1      -3.920  -1.677   2.044  1.00  0.00     0.109 A   
ATOM     25  C13 UNL     1      -4.165  -3.026   2.121  1.00  0.00     0.108 A   
ATOM     26  O1  UNL     1      -4.977  -0.933   2.462  1.00  0.00    -0.316 OA  
ATOM     27  O2  UNL     1      -5.406  -3.301   2.599  1.00  0.00    -0.316 OA  
ATOM     28  C16 UNL     1      -5.913  -1.970   2.833  1.00  0.00     0.337 C   
ENDBRANCH  19  20
ENDBRANCH  16  19
ENDBRANCH  15  16
BRANCH  15  29
ATOM     29  C17 UNL     1       0.518  -0.884  -3.018  1.00  0.00     0.043 C   
ATOM     30  C18 UNL     1       0.335  -2.312  -3.543  1.00  0.00     0.010 C   
ATOM     31  C21 UNL     1       1.758  -0.428  -3.798  1.00  0.00     0.010 C   
ATOM     32  C19 UNL     1       0.629  -2.204  -5.034  1.00  0.00     0.001 C   
ATOM     33  C20 UNL     1       1.592  -1.031  -5.189  1.00  0.00     0.001 C   
ENDBRANCH  15  29
ENDBRANCH   3  15
TORSDOF 7
