REMARK SMILES CC(C)[C@H]([NH2+]Cc1ccc2c(c1)OCO2)c1cn(C(=O)c2ccco2)nn1
REMARK SMILES IDX 4 1 2 2 1 3 3 4 5 5 6 8 7 9 8 10 12 11 9 12 11 13 10 14
REMARK SMILES IDX 13 15 15 16 14 17 16 18 17 19 27 20 18 21 26 22 19 23 20 24
REMARK SMILES IDX 21 25 22 26 25 27 23 28 24 29
REMARK H PARENT 5 6 5 7
ROOT
ATOM     1   C4  UNL     1       1.359  -1.720  -0.018  1.00  0.00     0.117 C   
ENDROOT
BRANCH   1   2
ATOM     2   C2  UNL     1       1.640  -2.974   0.851  1.00  0.00     0.037 C   
ATOM     3   C1  UNL     1       0.469  -3.378   1.755  1.00  0.00     0.014 C   
ATOM     4   C3  UNL     1       2.910  -2.809   1.694  1.00  0.00     0.014 C   
ENDBRANCH   1   2
BRANCH   1   5
ATOM     5   N1  UNL     1       0.948  -0.564   0.853  1.00  0.00     0.249 N   
ATOM     6   H9  UNL     1      -0.050  -0.690   1.078  1.00  0.00     0.199 HD  
ATOM     7   H10 UNL     1       1.442  -0.566   1.751  1.00  0.00     0.199 HD  
BRANCH   5   8
ATOM     8   C5  UNL     1       1.096   0.785   0.237  1.00  0.00     0.164 C   
BRANCH   8   9
ATOM     9   C6  UNL     1       0.571   1.843   1.165  1.00  0.00    -0.002 A   
ATOM     10  C7  UNL     1      -0.800   2.194   1.139  1.00  0.00     0.012 A   
ATOM     11  C11 UNL     1       1.424   2.447   2.104  1.00  0.00     0.045 A   
ATOM     12  C8  UNL     1      -1.314   3.144   2.028  1.00  0.00     0.037 A   
ATOM     13  C10 UNL     1       0.884   3.379   2.966  1.00  0.00     0.109 A   
ATOM     14  C9  UNL     1      -0.446   3.718   2.930  1.00  0.00     0.108 A   
ATOM     15  O1  UNL     1       1.566   4.052   3.929  1.00  0.00    -0.316 OA  
ATOM     16  O2  UNL     1      -0.768   4.650   3.864  1.00  0.00    -0.316 OA  
ATOM     17  C12 UNL     1       0.516   4.877   4.483  1.00  0.00     0.337 C   
ENDBRANCH   8   9
ENDBRANCH   5   8
ENDBRANCH   1   5
BRANCH   1  18
ATOM     18  C13 UNL     1       0.327  -1.985  -1.072  1.00  0.00     0.128 A   
ATOM     19  C14 UNL     1       0.423  -2.608  -2.293  1.00  0.00     0.139 A   
ATOM     20  N4  UNL     1      -0.962  -1.559  -0.894  1.00  0.00    -0.131 NA  
ATOM     21  N2  UNL     1      -0.856  -2.559  -2.833  1.00  0.00    -0.142 N   
ATOM     22  N3  UNL     1      -1.666  -1.901  -1.962  1.00  0.00    -0.068 NA  
BRANCH  21  23
ATOM     23  C15 UNL     1      -1.299  -3.064  -4.073  1.00  0.00     0.294 C   
ATOM     24  O3  UNL     1      -0.412  -3.596  -4.741  1.00  0.00    -0.267 OA  
BRANCH  23  25
ATOM     25  C16 UNL     1      -2.675  -2.965  -4.529  1.00  0.00     0.146 A   
ATOM     26  C17 UNL     1      -3.853  -2.485  -3.981  1.00  0.00     0.042 A   
ATOM     27  O4  UNL     1      -2.944  -3.443  -5.787  1.00  0.00    -0.313 OA  
ATOM     28  C18 UNL     1      -4.873  -2.680  -4.947  1.00  0.00     0.029 A   
ATOM     29  C19 UNL     1      -4.266  -3.267  -6.028  1.00  0.00     0.136 A   
ENDBRANCH  23  25
ENDBRANCH  21  23
ENDBRANCH   1  18
TORSDOF 7
