REMARK SMILES c1ccc2c(CCn3cc([C@@H]([NH2+]Cc4ccc5c(c4)OCO5)C4CCCC4)nn3)n[nH]c2c1
REMARK SMILES IDX 8 1 9 2 10 3 28 4 29 5 7 7 6 8 5 9 1 10 2 11 33 12 3 13
REMARK SMILES IDX 32 14 4 15 31 16 30 17 11 19 12 20 13 23 14 24 15 25 19 26
REMARK SMILES IDX 16 27 18 28 17 29 20 30 22 31 21 32 23 33 24 34 27 35 25 36
REMARK SMILES IDX 26 37
REMARK H PARENT 9 6 31 18 12 21 12 22
ROOT
ATOM     1   N1  UNL     1       2.288  -1.392  -1.672  1.00  0.00    -0.212 N   
ATOM     2   C8  UNL     1       1.817  -1.144  -0.413  1.00  0.00     0.045 A   
ATOM     3   C9  UNL     1       0.449  -1.169  -0.563  1.00  0.00     0.127 A   
ATOM     4   N3  UNL     1       0.144  -1.465  -1.868  1.00  0.00    -0.132 NA  
ATOM     5   N4  UNL     1       1.278  -1.612  -2.533  1.00  0.00    -0.076 NA  
ATOM     6   H8  UNL     1       2.473  -0.904   0.413  1.00  0.00     0.083 HD  
ENDROOT
BRANCH   1   7
ATOM     7   C7  UNL     1       3.648  -1.253  -2.149  1.00  0.00     0.140 C   
BRANCH   7   8
ATOM     8   C6  UNL     1       3.845   0.033  -2.951  1.00  0.00     0.080 C   
BRANCH   8   9
ATOM     9   C5  UNL     1       3.463   1.255  -2.178  1.00  0.00     0.069 A   
ATOM     10  C1  UNL     1       0.447   4.145  -2.120  1.00  0.00     0.002 A   
ATOM     11  C2  UNL     1       0.291   3.166  -3.103  1.00  0.00     0.001 A   
ATOM     12  C25 UNL     1       1.526   4.112  -1.228  1.00  0.00     0.026 A   
ATOM     13  C3  UNL     1       1.220   2.126  -3.231  1.00  0.00     0.012 A   
ATOM     14  C24 UNL     1       2.445   3.069  -1.381  1.00  0.00     0.057 A   
ATOM     15  C4  UNL     1       2.324   2.088  -2.359  1.00  0.00     0.020 A   
ATOM     16  N6  UNL     1       3.607   2.775  -0.716  1.00  0.00    -0.238 N   
ATOM     17  N5  UNL     1       4.203   1.642  -1.132  1.00  0.00    -0.188 NA  
ATOM     18  H28 UNL     1       4.037   3.297   0.040  1.00  0.00     0.176 HD  
ENDBRANCH   8   9
ENDBRANCH   7   8
ENDBRANCH   1   7
BRANCH   3  19
ATOM     19  C10 UNL     1      -0.641  -0.805   0.391  1.00  0.00     0.117 C   
BRANCH  19  20
ATOM     20  N2  UNL     1      -1.633   0.047  -0.369  1.00  0.00     0.249 N   
ATOM     21  H10 UNL     1      -1.076   0.751  -0.874  1.00  0.00     0.199 HD  
ATOM     22  H11 UNL     1      -2.026  -0.537  -1.119  1.00  0.00     0.199 HD  
BRANCH  20  23
ATOM     23  C11 UNL     1      -2.707   0.744   0.378  1.00  0.00     0.164 C   
BRANCH  23  24
ATOM     24  C12 UNL     1      -2.181   1.776   1.336  1.00  0.00    -0.002 A   
ATOM     25  C13 UNL     1      -1.722   3.025   0.853  1.00  0.00     0.012 A   
ATOM     26  C17 UNL     1      -2.102   1.496   2.711  1.00  0.00     0.045 A   
ATOM     27  C14 UNL     1      -1.188   3.982   1.723  1.00  0.00     0.037 A   
ATOM     28  C16 UNL     1      -1.565   2.459   3.541  1.00  0.00     0.109 A   
ATOM     29  C15 UNL     1      -1.120   3.667   3.061  1.00  0.00     0.108 A   
ATOM     30  O1  UNL     1      -1.405   2.343   4.885  1.00  0.00    -0.316 OA  
ATOM     31  O2  UNL     1      -0.626   4.464   4.043  1.00  0.00    -0.316 OA  
ATOM     32  C18 UNL     1      -0.833   3.633   5.205  1.00  0.00     0.337 C   
ENDBRANCH  23  24
ENDBRANCH  20  23
ENDBRANCH  19  20
BRANCH  19  33
ATOM     33  C19 UNL     1      -1.349  -2.001   1.051  1.00  0.00     0.043 C   
ATOM     34  C20 UNL     1      -2.107  -2.958   0.125  1.00  0.00     0.010 C   
ATOM     35  C23 UNL     1      -0.424  -2.951   1.818  1.00  0.00     0.010 C   
ATOM     36  C21 UNL     1      -2.273  -4.246   0.931  1.00  0.00     0.001 C   
ATOM     37  C22 UNL     1      -1.337  -4.127   2.135  1.00  0.00     0.001 C   
ENDBRANCH  19  33
ENDBRANCH   3  19
TORSDOF 8
