REMARK SMILES CC(C)(C)[C@H]([NH2+]Cc1ccc2c(c1)OCO2)c1cn(Cc2ccc(O)cc2)nn1
REMARK SMILES IDX 17 1 18 2 19 3 28 4 29 5 5 7 2 8 1 9 3 10 4 11 6 12 7 15
REMARK SMILES IDX 8 16 9 17 13 18 10 19 12 20 11 21 14 22 16 23 15 24 20 25
REMARK SMILES IDX 21 26 22 27 27 28 23 29 26 30 24 31 25 32
REMARK H PARENT 18 6 6 13 6 14 25 33
ROOT
ATOM     1   C14 UNL     1       0.345   0.854   1.027  1.00  0.00     0.127 A   
ATOM     2   C15 UNL     1      -0.062   0.065   2.080  1.00  0.00     0.046 A   
ATOM     3   N2  UNL     1      -1.331   0.501   2.349  1.00  0.00    -0.208 N   
ATOM     4   N3  UNL     1      -1.685   1.494   1.510  1.00  0.00    -0.076 NA  
ATOM     5   N4  UNL     1      -0.667   1.720   0.696  1.00  0.00    -0.132 NA  
ATOM     6   H20 UNL     1       0.400  -0.743   2.630  1.00  0.00     0.083 HD  
ENDROOT
BRANCH   1   7
ATOM     7   C5  UNL     1       1.596   0.837   0.199  1.00  0.00     0.120 C   
BRANCH   7   8
ATOM     8   C2  UNL     1       2.716   1.811   0.706  1.00  0.00     0.010 C   
ATOM     9   C1  UNL     1       2.303   3.293   0.614  1.00  0.00     0.017 C   
ATOM     10  C3  UNL     1       3.072   1.495   2.177  1.00  0.00     0.017 C   
ATOM     11  C4  UNL     1       4.010   1.616  -0.119  1.00  0.00     0.017 C   
ENDBRANCH   7   8
BRANCH   7  12
ATOM     12  N1  UNL     1       1.227   1.157  -1.231  1.00  0.00     0.250 N   
ATOM     13  H11 UNL     1       2.029   1.459  -1.789  1.00  0.00     0.199 HD  
ATOM     14  H12 UNL     1       0.584   1.963  -1.194  1.00  0.00     0.199 HD  
BRANCH  12  15
ATOM     15  C6  UNL     1       0.518   0.071  -1.965  1.00  0.00     0.164 C   
BRANCH  15  16
ATOM     16  C7  UNL     1       0.112   0.544  -3.332  1.00  0.00    -0.002 A   
ATOM     17  C8  UNL     1      -1.109   1.240  -3.507  1.00  0.00     0.012 A   
ATOM     18  C12 UNL     1       0.965   0.353  -4.432  1.00  0.00     0.045 A   
ATOM     19  C9  UNL     1      -1.483   1.728  -4.763  1.00  0.00     0.037 A   
ATOM     20  C11 UNL     1       0.565   0.847  -5.656  1.00  0.00     0.109 A   
ATOM     21  C10 UNL     1      -0.624   1.515  -5.818  1.00  0.00     0.108 A   
ATOM     22  O1  UNL     1       1.268   0.749  -6.815  1.00  0.00    -0.316 OA  
ATOM     23  O2  UNL     1      -0.821   1.918  -7.100  1.00  0.00    -0.316 OA  
ATOM     24  C13 UNL     1       0.372   1.411  -7.736  1.00  0.00     0.337 C   
ENDBRANCH  15  16
ENDBRANCH  12  15
ENDBRANCH   7  12
ENDBRANCH   1   7
BRANCH   3  25
ATOM     25  C16 UNL     1      -2.256   0.012   3.358  1.00  0.00     0.169 C   
BRANCH  25  26
ATOM     26  C17 UNL     1      -2.894  -1.280   2.915  1.00  0.00    -0.028 A   
ATOM     27  C18 UNL     1      -3.977  -1.267   2.019  1.00  0.00     0.008 A   
ATOM     28  C22 UNL     1      -2.399  -2.513   3.366  1.00  0.00     0.008 A   
ATOM     29  C19 UNL     1      -4.556  -2.462   1.586  1.00  0.00     0.033 A   
ATOM     30  C21 UNL     1      -2.975  -3.706   2.927  1.00  0.00     0.033 A   
ATOM     31  C20 UNL     1      -4.047  -3.672   2.043  1.00  0.00     0.071 A   
BRANCH  31  32
ATOM     32  O3  UNL     1      -4.575  -4.863   1.646  1.00  0.00    -0.361 OA  
ATOM     33  H25 UNL     1      -5.383  -4.697   1.131  1.00  0.00     0.218 HD  
ENDBRANCH  31  32
ENDBRANCH  25  26
ENDBRANCH   3  25
TORSDOF 8
