REMARK SMILES CC(C)(C)[C@H]([NH2+]Cc1ccc2c(c1)OCO2)c1cn([C@@H](CO)c2ccccc2)nn1
REMARK SMILES IDX 17 1 18 2 19 3 29 4 30 5 5 7 2 8 1 9 3 10 4 11 6 12 7 15
REMARK SMILES IDX 8 16 9 17 13 18 10 19 12 20 11 21 14 22 16 23 15 24 20 25
REMARK SMILES IDX 21 26 22 27 23 29 24 30 28 31 25 32 27 33 26 34
REMARK H PARENT 18 6 6 13 6 14 22 28
ROOT
ATOM     1   C14 UNL     1      -0.248  -1.294   0.924  1.00  0.00     0.127 A   
ATOM     2   C15 UNL     1      -1.237  -1.663   0.042  1.00  0.00     0.046 A   
ATOM     3   N2  UNL     1      -2.059  -2.476   0.777  1.00  0.00    -0.202 N   
ATOM     4   N3  UNL     1      -1.629  -2.549   2.058  1.00  0.00    -0.075 NA  
ATOM     5   N4  UNL     1      -0.517  -1.840   2.155  1.00  0.00    -0.132 NA  
ATOM     6   H20 UNL     1      -1.426  -1.445  -1.001  1.00  0.00     0.083 HD  
ENDROOT
BRANCH   1   7
ATOM     7   C5  UNL     1       0.936  -0.392   0.756  1.00  0.00     0.120 C   
BRANCH   7   8
ATOM     8   C2  UNL     1       2.247  -1.126   0.299  1.00  0.00     0.010 C   
ATOM     9   C1  UNL     1       1.997  -1.885  -1.025  1.00  0.00     0.017 C   
ATOM     10  C3  UNL     1       3.368  -0.098   0.019  1.00  0.00     0.017 C   
ATOM     11  C4  UNL     1       2.761  -2.135   1.344  1.00  0.00     0.017 C   
ENDBRANCH   7   8
BRANCH   7  12
ATOM     12  N1  UNL     1       1.170   0.335   2.068  1.00  0.00     0.250 N   
ATOM     13  H11 UNL     1       2.123   0.698   2.136  1.00  0.00     0.199 HD  
ATOM     14  H12 UNL     1       1.065  -0.381   2.802  1.00  0.00     0.199 HD  
BRANCH  12  15
ATOM     15  C6  UNL     1       0.208   1.433   2.384  1.00  0.00     0.164 C   
BRANCH  15  16
ATOM     16  C7  UNL     1       0.473   2.678   1.582  1.00  0.00    -0.002 A   
ATOM     17  C8  UNL     1       1.571   3.513   1.902  1.00  0.00     0.012 A   
ATOM     18  C12 UNL     1      -0.350   3.006   0.490  1.00  0.00     0.045 A   
ATOM     19  C9  UNL     1       1.847   4.659   1.146  1.00  0.00     0.037 A   
ATOM     20  C11 UNL     1      -0.048   4.141  -0.235  1.00  0.00     0.109 A   
ATOM     21  C10 UNL     1       1.018   4.945   0.084  1.00  0.00     0.108 A   
ATOM     22  O1  UNL     1      -0.732   4.592  -1.319  1.00  0.00    -0.316 OA  
ATOM     23  O2  UNL     1       1.137   6.007  -0.755  1.00  0.00    -0.316 OA  
ATOM     24  C13 UNL     1       0.004   5.799  -1.625  1.00  0.00     0.337 C   
ENDBRANCH  15  16
ENDBRANCH  12  15
ENDBRANCH   7  12
ENDBRANCH   1   7
BRANCH   3  25
ATOM     25  C16 UNL     1      -3.261  -3.197   0.359  1.00  0.00     0.155 C   
BRANCH  25  26
ATOM     26  C17 UNL     1      -4.501  -2.278   0.389  1.00  0.00     0.185 C   
BRANCH  26  27
ATOM     27  O3  UNL     1      -4.346  -1.094  -0.400  1.00  0.00    -0.394 OA  
ATOM     28  H24 UNL     1      -5.205  -0.631  -0.385  1.00  0.00     0.210 HD  
ENDBRANCH  26  27
ENDBRANCH  25  26
BRANCH  25  29
ATOM     29  C18 UNL     1      -3.006  -3.979  -0.926  1.00  0.00    -0.023 A   
ATOM     30  C19 UNL     1      -3.401  -3.521  -2.193  1.00  0.00     0.006 A   
ATOM     31  C23 UNL     1      -2.320  -5.207  -0.848  1.00  0.00     0.006 A   
ATOM     32  C20 UNL     1      -3.131  -4.270  -3.342  1.00  0.00     0.000 A   
ATOM     33  C22 UNL     1      -2.052  -5.955  -1.997  1.00  0.00     0.000 A   
ATOM     34  C21 UNL     1      -2.459  -5.486  -3.243  1.00  0.00     0.000 A   
ENDBRANCH  25  29
ENDBRANCH   3  25
TORSDOF 9
