REMARK SMILES CC(C)(C)[C@H]([NH2+]Cc1ccc2c(c1)OCO2)c1cn([C@H](CO)c2ccccc2)nn1
REMARK SMILES IDX 17 1 18 2 19 3 29 4 30 5 5 7 2 8 1 9 3 10 4 11 6 12 7 15
REMARK SMILES IDX 8 16 9 17 13 18 10 19 12 20 11 21 14 22 16 23 15 24 20 25
REMARK SMILES IDX 21 26 22 27 23 29 24 30 28 31 25 32 27 33 26 34
REMARK H PARENT 18 6 6 13 6 14 22 28
ROOT
ATOM     1   C14 UNL     1      -1.426  -0.669  -0.138  1.00  0.00     0.127 A   
ATOM     2   C15 UNL     1      -0.619  -1.113  -1.158  1.00  0.00     0.046 A   
ATOM     3   N2  UNL     1      -1.434  -1.114  -2.258  1.00  0.00    -0.202 N   
ATOM     4   N3  UNL     1      -2.680  -0.713  -1.923  1.00  0.00    -0.075 NA  
ATOM     5   N4  UNL     1      -2.685  -0.440  -0.627  1.00  0.00    -0.132 NA  
ATOM     6   H20 UNL     1       0.430  -1.373  -1.219  1.00  0.00     0.083 HD  
ENDROOT
BRANCH   1   7
ATOM     7   C5  UNL     1      -1.087  -0.304   1.272  1.00  0.00     0.120 C   
BRANCH   7   8
ATOM     8   C2  UNL     1      -1.485  -1.390   2.333  1.00  0.00     0.010 C   
ATOM     9   C1  UNL     1      -0.814  -2.738   1.982  1.00  0.00     0.017 C   
ATOM     10  C3  UNL     1      -0.973  -0.984   3.735  1.00  0.00     0.017 C   
ATOM     11  C4  UNL     1      -3.007  -1.616   2.426  1.00  0.00     0.017 C   
ENDBRANCH   7   8
BRANCH   7  12
ATOM     12  N1  UNL     1      -1.724   1.032   1.611  1.00  0.00     0.250 N   
ATOM     13  H11 UNL     1      -2.733   0.922   1.450  1.00  0.00     0.199 HD  
ATOM     14  H12 UNL     1      -1.588   1.256   2.598  1.00  0.00     0.199 HD  
BRANCH  12  15
ATOM     15  C6  UNL     1      -1.286   2.207   0.791  1.00  0.00     0.164 C   
BRANCH  15  16
ATOM     16  C7  UNL     1       0.187   2.494   0.887  1.00  0.00    -0.002 A   
ATOM     17  C8  UNL     1       0.744   3.010   2.082  1.00  0.00     0.012 A   
ATOM     18  C12 UNL     1       1.028   2.222  -0.208  1.00  0.00     0.045 A   
ATOM     19  C9  UNL     1       2.119   3.246   2.190  1.00  0.00     0.037 A   
ATOM     20  C11 UNL     1       2.379   2.463  -0.067  1.00  0.00     0.109 A   
ATOM     21  C10 UNL     1       2.909   2.959   1.098  1.00  0.00     0.108 A   
ATOM     22  O1  UNL     1       3.325   2.246  -1.018  1.00  0.00    -0.316 OA  
ATOM     23  O2  UNL     1       4.256   3.123   1.026  1.00  0.00    -0.316 OA  
ATOM     24  C13 UNL     1       4.514   2.692  -0.328  1.00  0.00     0.337 C   
ENDBRANCH  15  16
ENDBRANCH  12  15
ENDBRANCH   7  12
ENDBRANCH   1   7
BRANCH   3  25
ATOM     25  C16 UNL     1      -1.073  -1.320  -3.661  1.00  0.00     0.155 C   
BRANCH  25  26
ATOM     26  C17 UNL     1      -0.703  -2.788  -3.958  1.00  0.00     0.185 C   
BRANCH  26  27
ATOM     27  O3  UNL     1       0.363  -3.285  -3.148  1.00  0.00    -0.394 OA  
ATOM     28  H24 UNL     1       0.542  -4.198  -3.443  1.00  0.00     0.210 HD  
ENDBRANCH  26  27
ENDBRANCH  25  26
BRANCH  25  29
ATOM     29  C18 UNL     1      -0.080  -0.244  -4.092  1.00  0.00    -0.023 A   
ATOM     30  C19 UNL     1      -0.571   1.023  -4.468  1.00  0.00     0.006 A   
ATOM     31  C23 UNL     1       1.309  -0.436  -4.077  1.00  0.00     0.006 A   
ATOM     32  C20 UNL     1       0.299   2.057  -4.822  1.00  0.00     0.000 A   
ATOM     33  C22 UNL     1       2.178   0.601  -4.428  1.00  0.00     0.000 A   
ATOM     34  C21 UNL     1       1.673   1.845  -4.800  1.00  0.00     0.000 A   
ENDBRANCH  25  29
ENDBRANCH   3  25
TORSDOF 9
