REMARK SMILES COc1cccc(C)c1Cn1cc([C@@H]([NH2+]Cc2ccc3c(c2)OCO3)C2CCCCC2)nn1
REMARK SMILES IDX 11 1 12 2 13 3 32 4 33 5 10 7 9 8 3 9 4 10 5 11 7 12 6 13
REMARK SMILES IDX 8 14 2 15 1 16 14 17 15 18 16 21 17 22 18 23 22 24 19 25
REMARK SMILES IDX 21 26 20 27 23 28 25 29 24 30 26 31 27 32 31 33 28 34 30 35
REMARK SMILES IDX 29 36
REMARK H PARENT 12 6 15 19 15 20
ROOT
ATOM     1   N1  UNL     1      -0.367  -2.505   0.163  1.00  0.00    -0.208 N   
ATOM     2   C10 UNL     1      -0.097  -1.163   0.147  1.00  0.00     0.046 A   
ATOM     3   C11 UNL     1      -0.072  -0.837  -1.190  1.00  0.00     0.127 A   
ATOM     4   N3  UNL     1      -0.319  -1.963  -1.931  1.00  0.00    -0.132 NA  
ATOM     5   N4  UNL     1      -0.510  -2.971  -1.097  1.00  0.00    -0.076 NA  
ATOM     6   H12 UNL     1       0.055  -0.589   1.050  1.00  0.00     0.083 HD  
ENDROOT
BRANCH   1   7
ATOM     7   C9  UNL     1      -0.566  -3.411   1.288  1.00  0.00     0.172 C   
BRANCH   7   8
ATOM     8   C8  UNL     1       0.038  -2.908   2.583  1.00  0.00     0.005 A   
ATOM     9   C2  UNL     1       1.431  -3.038   2.787  1.00  0.00     0.080 A   
ATOM     10  C3  UNL     1       2.014  -2.572   3.967  1.00  0.00     0.034 A   
ATOM     11  C4  UNL     1       1.225  -1.985   4.953  1.00  0.00     0.003 A   
ATOM     12  C6  UNL     1      -0.757  -2.300   3.584  1.00  0.00    -0.044 A   
ATOM     13  C5  UNL     1      -0.147  -1.852   4.765  1.00  0.00     0.004 A   
ATOM     14  C7  UNL     1      -2.246  -2.135   3.438  1.00  0.00     0.045 C   
BRANCH   9  15
ATOM     15  O1  UNL     1       2.137  -3.605   1.755  1.00  0.00    -0.349 OA  
ATOM     16  C1  UNL     1       3.435  -4.104   2.065  1.00  0.00     0.203 C   
ENDBRANCH   9  15
ENDBRANCH   7   8
ENDBRANCH   1   7
BRANCH   3  17
ATOM     17  C12 UNL     1       0.231   0.451  -1.889  1.00  0.00     0.117 C   
BRANCH  17  18
ATOM     18  N2  UNL     1       0.947   0.105  -3.178  1.00  0.00     0.249 N   
ATOM     19  H14 UNL     1       1.696  -0.549  -2.917  1.00  0.00     0.199 HD  
ATOM     20  H15 UNL     1       0.311  -0.479  -3.737  1.00  0.00     0.199 HD  
BRANCH  18  21
ATOM     21  C13 UNL     1       1.534   1.190  -4.000  1.00  0.00     0.164 C   
BRANCH  21  22
ATOM     22  C14 UNL     1       2.583   1.982  -3.271  1.00  0.00    -0.002 A   
ATOM     23  C15 UNL     1       3.856   1.415  -3.011  1.00  0.00     0.012 A   
ATOM     24  C19 UNL     1       2.298   3.278  -2.809  1.00  0.00     0.045 A   
ATOM     25  C16 UNL     1       4.827   2.127  -2.299  1.00  0.00     0.037 A   
ATOM     26  C18 UNL     1       3.277   3.950  -2.107  1.00  0.00     0.109 A   
ATOM     27  C17 UNL     1       4.506   3.391  -1.858  1.00  0.00     0.108 A   
ATOM     28  O2  UNL     1       3.159   5.199  -1.586  1.00  0.00    -0.316 OA  
ATOM     29  O3  UNL     1       5.319   4.219  -1.152  1.00  0.00    -0.316 OA  
ATOM     30  C20 UNL     1       4.471   5.378  -1.003  1.00  0.00     0.337 C   
ENDBRANCH  21  22
ENDBRANCH  18  21
ENDBRANCH  17  18
BRANCH  17  31
ATOM     31  C21 UNL     1      -1.016   1.333  -2.161  1.00  0.00     0.043 C   
ATOM     32  C22 UNL     1      -2.086   0.668  -3.050  1.00  0.00     0.010 C   
ATOM     33  C26 UNL     1      -1.652   1.831  -0.847  1.00  0.00     0.010 C   
ATOM     34  C23 UNL     1      -3.271   1.601  -3.300  1.00  0.00     0.001 C   
ATOM     35  C25 UNL     1      -2.830   2.767  -1.109  1.00  0.00     0.001 C   
ATOM     36  C24 UNL     1      -3.880   2.108  -1.997  1.00  0.00     0.000 C   
ENDBRANCH  17  31
ENDBRANCH   3  17
TORSDOF 8
