REMARK SMILES CC(C)c1[nH]ncc1Cn1cc([C@@H]([NH2+]Cc2ccc3c(c2)OCO3)C2CCCCC2)nn1
REMARK SMILES IDX 10 1 11 2 12 3 31 4 32 5 9 7 8 8 4 9 5 10 6 11 7 12 2 14
REMARK SMILES IDX 1 15 3 16 13 17 14 18 15 21 16 22 17 23 21 24 18 25 20 26
REMARK SMILES IDX 19 27 22 28 24 29 23 30 25 31 26 32 30 33 27 34 29 35 28 36
REMARK H PARENT 11 6 5 13 14 19 14 20
ROOT
ATOM     1   N3  UNL     1       0.985   1.157   1.745  1.00  0.00    -0.208 N   
ATOM     2   C8  UNL     1       0.373   0.710   0.604  1.00  0.00     0.046 A   
ATOM     3   C9  UNL     1       1.421   0.409  -0.239  1.00  0.00     0.127 A   
ATOM     4   N5  UNL     1       2.602   0.737   0.377  1.00  0.00    -0.132 NA  
ATOM     5   N6  UNL     1       2.321   1.215   1.578  1.00  0.00    -0.076 NA  
ATOM     6   H12 UNL     1      -0.701   0.608   0.526  1.00  0.00     0.083 HD  
ENDROOT
BRANCH   1   7
ATOM     7   C7  UNL     1       0.369   1.544   3.006  1.00  0.00     0.172 C   
BRANCH   7   8
ATOM     8   C6  UNL     1      -0.245   0.361   3.669  1.00  0.00     0.010 A   
ATOM     9   C4  UNL     1      -1.584   0.065   3.889  1.00  0.00     0.034 A   
ATOM     10  N1  UNL     1      -1.590  -1.135   4.558  1.00  0.00    -0.242 N   
ATOM     11  N2  UNL     1      -0.371  -1.663   4.721  1.00  0.00    -0.192 NA  
ATOM     12  C5  UNL     1       0.449  -0.744   4.218  1.00  0.00     0.138 A   
ATOM     13  H8  UNL     1      -2.389  -1.655   4.910  1.00  0.00     0.175 HD  
BRANCH   9  14
ATOM     14  C2  UNL     1      -2.852   0.795   3.542  1.00  0.00     0.029 C   
ATOM     15  C1  UNL     1      -3.615   1.216   4.798  1.00  0.00     0.014 C   
ATOM     16  C3  UNL     1      -3.738  -0.042   2.619  1.00  0.00     0.014 C   
ENDBRANCH   9  14
ENDBRANCH   7   8
ENDBRANCH   1   7
BRANCH   3  17
ATOM     17  C10 UNL     1       1.434  -0.172  -1.616  1.00  0.00     0.117 C   
BRANCH  17  18
ATOM     18  N4  UNL     1       2.682   0.230  -2.367  1.00  0.00     0.249 N   
ATOM     19  H14 UNL     1       3.474   0.029  -1.741  1.00  0.00     0.199 HD  
ATOM     20  H15 UNL     1       2.800  -0.345  -3.205  1.00  0.00     0.199 HD  
BRANCH  18  21
ATOM     21  C11 UNL     1       2.793   1.670  -2.749  1.00  0.00     0.164 C   
BRANCH  21  22
ATOM     22  C12 UNL     1       1.718   2.121  -3.697  1.00  0.00    -0.002 A   
ATOM     23  C13 UNL     1       1.681   1.644  -5.031  1.00  0.00     0.012 A   
ATOM     24  C17 UNL     1       0.718   3.004  -3.251  1.00  0.00     0.045 A   
ATOM     25  C14 UNL     1       0.659   2.035  -5.906  1.00  0.00     0.037 A   
ATOM     26  C16 UNL     1      -0.273   3.371  -4.138  1.00  0.00     0.109 A   
ATOM     27  C15 UNL     1      -0.302   2.900  -5.428  1.00  0.00     0.108 A   
ATOM     28  O1  UNL     1      -1.309   4.206  -3.866  1.00  0.00    -0.316 OA  
ATOM     29  O2  UNL     1      -1.359   3.381  -6.133  1.00  0.00    -0.316 OA  
ATOM     30  C18 UNL     1      -1.972   4.248  -5.152  1.00  0.00     0.337 C   
ENDBRANCH  21  22
ENDBRANCH  18  21
ENDBRANCH  17  18
BRANCH  17  31
ATOM     31  C19 UNL     1       1.302  -1.721  -1.586  1.00  0.00     0.043 C   
ATOM     32  C20 UNL     1       2.544  -2.449  -1.034  1.00  0.00     0.010 C   
ATOM     33  C24 UNL     1       0.928  -2.290  -2.969  1.00  0.00     0.010 C   
ATOM     34  C21 UNL     1       2.334  -3.962  -0.986  1.00  0.00     0.001 C   
ATOM     35  C23 UNL     1       0.714  -3.802  -2.914  1.00  0.00     0.001 C   
ATOM     36  C22 UNL     1       1.935  -4.520  -2.349  1.00  0.00     0.000 C   
ENDBRANCH  17  31
ENDBRANCH   3  17
TORSDOF 8
