REMARK SMILES Cc1ccc(CCn2cc([C@@H]([NH2+]Cc3ccc4c(c3)OCO4)C3CCCC3)nn2)cc1O
REMARK SMILES IDX 8 1 9 2 10 3 28 4 29 5 7 7 6 8 5 9 2 10 3 11 31 12 4 13
REMARK SMILES IDX 30 14 1 15 32 16 11 18 12 19 13 22 14 23 15 24 19 25 16 26
REMARK SMILES IDX 18 27 17 28 20 29 22 30 21 31 23 32 24 33 27 34 25 35 26 36
REMARK H PARENT 9 6 32 17 12 20 12 21
ROOT
ATOM     1   N1  UNL     1      -0.555  -0.248   3.153  1.00  0.00    -0.212 N   
ATOM     2   C8  UNL     1       0.397  -0.086   2.187  1.00  0.00     0.045 A   
ATOM     3   C9  UNL     1       0.177   1.190   1.720  1.00  0.00     0.127 A   
ATOM     4   N3  UNL     1      -0.865   1.752   2.411  1.00  0.00    -0.132 NA  
ATOM     5   N4  UNL     1      -1.297   0.865   3.293  1.00  0.00    -0.076 NA  
ATOM     6   H10 UNL     1       1.081  -0.875   1.907  1.00  0.00     0.083 HD  
ENDROOT
BRANCH   1   7
ATOM     7   C7  UNL     1      -0.864  -1.444   3.908  1.00  0.00     0.139 C   
BRANCH   7   8
ATOM     8   C6  UNL     1      -2.174  -2.105   3.471  1.00  0.00     0.057 C   
BRANCH   8   9
ATOM     9   C5  UNL     1      -2.161  -2.551   2.027  1.00  0.00    -0.044 A   
ATOM     10  C2  UNL     1      -2.099  -3.345  -0.685  1.00  0.00    -0.021 A   
ATOM     11  C3  UNL     1      -1.567  -4.168   0.318  1.00  0.00     0.006 A   
ATOM     12  C25 UNL     1      -2.668  -2.125  -0.305  1.00  0.00     0.074 A   
ATOM     13  C4  UNL     1      -1.592  -3.775   1.659  1.00  0.00     0.004 A   
ATOM     14  C24 UNL     1      -2.697  -1.727   1.029  1.00  0.00     0.037 A   
ATOM     15  C1  UNL     1      -2.050  -3.796  -2.116  1.00  0.00     0.047 C   
BRANCH  12  16
ATOM     16  O3  UNL     1      -3.193  -1.253  -1.217  1.00  0.00    -0.361 OA  
ATOM     17  H31 UNL     1      -3.563  -1.788  -1.944  1.00  0.00     0.218 HD  
ENDBRANCH  12  16
ENDBRANCH   8   9
ENDBRANCH   7   8
ENDBRANCH   1   7
BRANCH   3  18
ATOM     18  C10 UNL     1       0.805   1.946   0.599  1.00  0.00     0.117 C   
BRANCH  18  19
ATOM     19  N2  UNL     1      -0.282   2.509  -0.292  1.00  0.00     0.249 N   
ATOM     20  H12 UNL     1       0.090   3.234  -0.908  1.00  0.00     0.199 HD  
ATOM     21  H13 UNL     1      -0.960   2.962   0.338  1.00  0.00     0.199 HD  
BRANCH  19  22
ATOM     22  C11 UNL     1      -1.033   1.511  -1.116  1.00  0.00     0.164 C   
BRANCH  22  23
ATOM     23  C12 UNL     1      -0.178   0.894  -2.189  1.00  0.00    -0.002 A   
ATOM     24  C13 UNL     1       0.236   1.652  -3.309  1.00  0.00     0.012 A   
ATOM     25  C17 UNL     1       0.252  -0.438  -2.060  1.00  0.00     0.045 A   
ATOM     26  C14 UNL     1       1.074   1.097  -4.283  1.00  0.00     0.037 A   
ATOM     27  C16 UNL     1       1.069  -0.959  -3.040  1.00  0.00     0.109 A   
ATOM     28  C15 UNL     1       1.474  -0.211  -4.117  1.00  0.00     0.108 A   
ATOM     29  O1  UNL     1       1.568  -2.222  -3.067  1.00  0.00    -0.316 OA  
ATOM     30  O2  UNL     1       2.286  -0.907  -4.955  1.00  0.00    -0.316 OA  
ATOM     31  C18 UNL     1       2.332  -2.189  -4.293  1.00  0.00     0.337 C   
ENDBRANCH  22  23
ENDBRANCH  19  22
ENDBRANCH  18  19
BRANCH  18  32
ATOM     32  C19 UNL     1       1.675   3.115   1.098  1.00  0.00     0.043 C   
ATOM     33  C20 UNL     1       2.830   2.675   2.004  1.00  0.00     0.010 C   
ATOM     34  C23 UNL     1       2.405   3.872  -0.022  1.00  0.00     0.010 C   
ATOM     35  C21 UNL     1       3.730   3.899   2.032  1.00  0.00     0.001 C   
ATOM     36  C22 UNL     1       3.668   4.456   0.614  1.00  0.00     0.001 C   
ENDBRANCH  18  32
ENDBRANCH   3  18
TORSDOF 9
