REMARK SMILES COc1cc(Cn2cc([C@@H]([NH2+]Cc3ccc4c(c3)OCO4)C3CCCCC3)nn2)cc(C)n1
REMARK SMILES IDX 7 1 8 2 9 3 28 4 29 5 6 7 5 8 3 9 4 10 33 11 31 12 30 13
REMARK SMILES IDX 32 14 2 15 1 16 10 17 11 18 12 21 13 22 14 23 18 24 15 25
REMARK SMILES IDX 17 26 16 27 19 28 21 29 20 30 22 31 23 32 27 33 24 34 26 35
REMARK SMILES IDX 25 36
REMARK H PARENT 8 6 11 19 11 20
ROOT
ATOM     1   N1  UNL     1       1.847   1.388   0.602  1.00  0.00    -0.208 N   
ATOM     2   C6  UNL     1       1.279   0.144   0.604  1.00  0.00     0.046 A   
ATOM     3   C7  UNL     1       0.672   0.055  -0.629  1.00  0.00     0.127 A   
ATOM     4   N3  UNL     1       0.928   1.198  -1.341  1.00  0.00    -0.132 NA  
ATOM     5   N4  UNL     1       1.645   2.007  -0.578  1.00  0.00    -0.076 NA  
ATOM     6   H7  UNL     1       1.300  -0.503   1.469  1.00  0.00     0.083 HD  
ENDROOT
BRANCH   1   7
ATOM     7   C5  UNL     1       2.446   2.095   1.723  1.00  0.00     0.169 C   
BRANCH   7   8
ATOM     8   C4  UNL     1       1.361   2.668   2.599  1.00  0.00    -0.023 A   
ATOM     9   C2  UNL     1      -0.205   2.473   4.399  1.00  0.00     0.167 A   
ATOM     10  C3  UNL     1       0.856   1.944   3.683  1.00  0.00     0.060 A   
ATOM     11  N5  UNL     1      -0.789   3.651   4.106  1.00  0.00    -0.230 NA  
ATOM     12  C24 UNL     1      -0.280   4.366   3.077  1.00  0.00     0.041 A   
ATOM     13  C23 UNL     1       0.781   3.907   2.301  1.00  0.00     0.029 A   
ATOM     14  C25 UNL     1      -0.915   5.691   2.780  1.00  0.00     0.067 C   
BRANCH   9  15
ATOM     15  O1  UNL     1      -0.694   1.693   5.427  1.00  0.00    -0.333 OA  
ATOM     16  C1  UNL     1      -1.698   2.352   6.194  1.00  0.00     0.205 C   
ENDBRANCH   9  15
ENDBRANCH   7   8
ENDBRANCH   1   7
BRANCH   3  17
ATOM     17  C8  UNL     1      -0.254  -0.978  -1.179  1.00  0.00     0.117 C   
BRANCH  17  18
ATOM     18  N2  UNL     1      -1.426  -0.330  -1.890  1.00  0.00     0.249 N   
ATOM     19  H9  UNL     1      -2.008  -1.050  -2.325  1.00  0.00     0.199 HD  
ATOM     20  H10 UNL     1      -1.033   0.248  -2.645  1.00  0.00     0.199 HD  
BRANCH  18  21
ATOM     21  C9  UNL     1      -2.292   0.582  -1.074  1.00  0.00     0.164 C   
BRANCH  21  22
ATOM     22  C10 UNL     1      -2.834  -0.043   0.180  1.00  0.00    -0.002 A   
ATOM     23  C11 UNL     1      -2.445   0.460   1.446  1.00  0.00     0.012 A   
ATOM     24  C15 UNL     1      -3.718  -1.133   0.113  1.00  0.00     0.045 A   
ATOM     25  C12 UNL     1      -2.913  -0.123   2.628  1.00  0.00     0.037 A   
ATOM     26  C14 UNL     1      -4.159  -1.685   1.298  1.00  0.00     0.109 A   
ATOM     27  C13 UNL     1      -3.768  -1.196   2.520  1.00  0.00     0.108 A   
ATOM     28  O2  UNL     1      -5.003  -2.745   1.407  1.00  0.00    -0.316 OA  
ATOM     29  O3  UNL     1      -4.318  -1.885   3.552  1.00  0.00    -0.316 OA  
ATOM     30  C16 UNL     1      -5.128  -2.847   2.844  1.00  0.00     0.337 C   
ENDBRANCH  21  22
ENDBRANCH  18  21
ENDBRANCH  17  18
BRANCH  17  31
ATOM     31  C17 UNL     1       0.412  -1.993  -2.147  1.00  0.00     0.043 C   
ATOM     32  C18 UNL     1       1.038  -1.365  -3.409  1.00  0.00     0.010 C   
ATOM     33  C22 UNL     1       1.455  -2.862  -1.416  1.00  0.00     0.010 C   
ATOM     34  C19 UNL     1       1.645  -2.426  -4.326  1.00  0.00     0.001 C   
ATOM     35  C21 UNL     1       2.058  -3.920  -2.340  1.00  0.00     0.001 C   
ATOM     36  C20 UNL     1       2.661  -3.293  -3.592  1.00  0.00     0.000 C   
ENDBRANCH  17  31
ENDBRANCH   3  17
TORSDOF 8
