REMARK SMILES CC(C)C[C@H]([NH2+]Cc1ccc2c(c1)OCO2)c1cn(C[C@@H](O)Cc2cccc(F)c2)nn1
REMARK SMILES IDX 17 1 18 2 19 3 31 4 32 5 5 7 4 8 2 9 1 10 3 11 6 12 7 15
REMARK SMILES IDX 8 16 9 17 13 18 10 19 12 20 11 21 14 22 16 23 15 24 20 25
REMARK SMILES IDX 21 26 22 27 23 29 24 30 25 31 30 32 26 33 28 34 27 35 29 36
REMARK H PARENT 18 6 6 13 6 14 22 28
ROOT
ATOM     1   C14 UNL     1       1.194   0.431  -1.180  1.00  0.00     0.127 A   
ATOM     2   C15 UNL     1       1.417  -0.099   0.071  1.00  0.00     0.045 A   
ATOM     3   N2  UNL     1       2.288  -1.126  -0.157  1.00  0.00    -0.210 N   
ATOM     4   N3  UNL     1       2.608  -1.206  -1.460  1.00  0.00    -0.076 NA  
ATOM     5   N4  UNL     1       1.933  -0.265  -2.101  1.00  0.00    -0.132 NA  
ATOM     6   H20 UNL     1       1.051   0.144   1.060  1.00  0.00     0.083 HD  
ENDROOT
BRANCH   1   7
ATOM     7   C5  UNL     1       0.377   1.598  -1.620  1.00  0.00     0.114 C   
BRANCH   7   8
ATOM     8   C4  UNL     1      -0.965   1.179  -2.252  1.00  0.00     0.064 C   
BRANCH   8   9
ATOM     9   C2  UNL     1      -1.933   0.439  -1.304  1.00  0.00    -0.012 C   
ATOM     10  C1  UNL     1      -3.203   0.045  -2.065  1.00  0.00     0.007 C   
ATOM     11  C3  UNL     1      -2.305   1.272  -0.077  1.00  0.00     0.007 C   
ENDBRANCH   8   9
ENDBRANCH   7   8
BRANCH   7  12
ATOM     12  N1  UNL     1       1.129   2.388  -2.675  1.00  0.00     0.249 N   
ATOM     13  H11 UNL     1       0.498   3.054  -3.132  1.00  0.00     0.199 HD  
ATOM     14  H12 UNL     1       1.425   1.707  -3.389  1.00  0.00     0.199 HD  
BRANCH  12  15
ATOM     15  C6  UNL     1       2.352   3.112  -2.215  1.00  0.00     0.164 C   
BRANCH  15  16
ATOM     16  C7  UNL     1       2.049   4.200  -1.223  1.00  0.00    -0.002 A   
ATOM     17  C8  UNL     1       1.423   5.400  -1.640  1.00  0.00     0.012 A   
ATOM     18  C12 UNL     1       2.346   4.013   0.139  1.00  0.00     0.045 A   
ATOM     19  C9  UNL     1       1.085   6.394  -0.715  1.00  0.00     0.037 A   
ATOM     20  C11 UNL     1       1.997   5.011   1.025  1.00  0.00     0.109 A   
ATOM     21  C10 UNL     1       1.381   6.166   0.611  1.00  0.00     0.108 A   
ATOM     22  O1  UNL     1       2.197   4.980   2.369  1.00  0.00    -0.316 OA  
ATOM     23  O2  UNL     1       1.114   7.009   1.643  1.00  0.00    -0.316 OA  
ATOM     24  C13 UNL     1       1.655   6.264   2.756  1.00  0.00     0.337 C   
ENDBRANCH  15  16
ENDBRANCH  12  15
ENDBRANCH   7  12
ENDBRANCH   1   7
BRANCH   3  25
ATOM     25  C16 UNL     1       2.893  -2.010   0.809  1.00  0.00     0.166 C   
BRANCH  25  26
ATOM     26  C17 UNL     1       2.579  -3.497   0.605  1.00  0.00     0.138 C   
BRANCH  26  27
ATOM     27  O3  UNL     1       3.172  -4.230   1.685  1.00  0.00    -0.391 OA  
ATOM     28  H24 UNL     1       3.063  -5.182   1.501  1.00  0.00     0.211 HD  
ENDBRANCH  26  27
BRANCH  26  29
ATOM     29  C18 UNL     1       1.084  -3.856   0.470  1.00  0.00     0.069 C   
BRANCH  29  30
ATOM     30  C19 UNL     1       0.117  -3.243   1.461  1.00  0.00    -0.042 A   
ATOM     31  C20 UNL     1      -1.145  -2.817   1.010  1.00  0.00     0.004 A   
ATOM     32  C24 UNL     1       0.402  -3.142   2.829  1.00  0.00     0.043 A   
ATOM     33  C21 UNL     1      -2.079  -2.266   1.893  1.00  0.00     0.003 A   
ATOM     34  C23 UNL     1      -0.533  -2.583   3.701  1.00  0.00     0.123 A   
ATOM     35  C22 UNL     1      -1.766  -2.139   3.244  1.00  0.00     0.039 A   
ATOM     36  F1  UNL     1      -0.234  -2.467   5.002  1.00  0.00    -0.207 F   
ENDBRANCH  29  30
ENDBRANCH  26  29
ENDBRANCH  25  26
ENDBRANCH   3  25
TORSDOF 11
