REMARK SMILES CC(C)C[C@H]([NH2+]Cc1ccc2c(c1)OCO2)c1cn(C[C@H](O)Cc2cccc(F)c2)nn1
REMARK SMILES IDX 17 1 18 2 19 3 31 4 32 5 5 7 4 8 2 9 1 10 3 11 6 12 7 15
REMARK SMILES IDX 8 16 9 17 13 18 10 19 12 20 11 21 14 22 16 23 15 24 20 25
REMARK SMILES IDX 21 26 22 27 23 29 24 30 25 31 30 32 26 33 28 34 27 35 29 36
REMARK H PARENT 18 6 6 13 6 14 22 28
ROOT
ATOM     1   C14 UNL     1      -1.072   0.978  -1.455  1.00  0.00     0.127 A   
ATOM     2   C15 UNL     1      -1.836   0.729  -2.575  1.00  0.00     0.045 A   
ATOM     3   N2  UNL     1      -1.002   1.012  -3.620  1.00  0.00    -0.210 N   
ATOM     4   N3  UNL     1       0.171   1.496  -3.174  1.00  0.00    -0.076 NA  
ATOM     5   N4  UNL     1       0.142   1.471  -1.850  1.00  0.00    -0.132 NA  
ATOM     6   H20 UNL     1      -2.839   0.354  -2.726  1.00  0.00     0.083 HD  
ENDROOT
BRANCH   1   7
ATOM     7   C5  UNL     1      -1.397   0.762  -0.012  1.00  0.00     0.114 C   
BRANCH   7   8
ATOM     8   C4  UNL     1      -1.438   2.075   0.786  1.00  0.00     0.064 C   
BRANCH   8   9
ATOM     9   C2  UNL     1      -2.013   1.976   2.215  1.00  0.00    -0.012 C   
ATOM     10  C1  UNL     1      -3.494   1.593   2.218  1.00  0.00     0.007 C   
ATOM     11  C3  UNL     1      -1.829   3.312   2.941  1.00  0.00     0.007 C   
ENDBRANCH   8   9
ENDBRANCH   7   8
BRANCH   7  12
ATOM     12  N1  UNL     1      -0.540  -0.293   0.639  1.00  0.00     0.249 N   
ATOM     13  H11 UNL     1      -0.943  -0.551   1.544  1.00  0.00     0.199 HD  
ATOM     14  H12 UNL     1      -0.628  -1.131   0.046  1.00  0.00     0.199 HD  
BRANCH  12  15
ATOM     15  C6  UNL     1       0.930  -0.072   0.797  1.00  0.00     0.164 C   
BRANCH  15  16
ATOM     16  C7  UNL     1       1.324   0.569   2.099  1.00  0.00    -0.002 A   
ATOM     17  C8  UNL     1       1.935   1.845   2.109  1.00  0.00     0.012 A   
ATOM     18  C12 UNL     1       1.110  -0.100   3.318  1.00  0.00     0.045 A   
ATOM     19  C9  UNL     1       2.304   2.460   3.311  1.00  0.00     0.037 A   
ATOM     20  C11 UNL     1       1.482   0.535   4.484  1.00  0.00     0.109 A   
ATOM     21  C10 UNL     1       2.060   1.779   4.482  1.00  0.00     0.108 A   
ATOM     22  O1  UNL     1       1.332   0.033   5.738  1.00  0.00    -0.316 OA  
ATOM     23  O2  UNL     1       2.348   2.219   5.734  1.00  0.00    -0.316 OA  
ATOM     24  C13 UNL     1       1.906   1.098   6.529  1.00  0.00     0.337 C   
ENDBRANCH  15  16
ENDBRANCH  12  15
ENDBRANCH   7  12
ENDBRANCH   1   7
BRANCH   3  25
ATOM     25  C16 UNL     1      -1.278   0.930  -5.037  1.00  0.00     0.166 C   
BRANCH  25  26
ATOM     26  C17 UNL     1      -1.547  -0.479  -5.592  1.00  0.00     0.138 C   
BRANCH  26  27
ATOM     27  O3  UNL     1      -2.645  -1.104  -4.918  1.00  0.00    -0.391 OA  
ATOM     28  H24 UNL     1      -2.902  -1.884  -5.444  1.00  0.00     0.211 HD  
ENDBRANCH  26  27
BRANCH  26  29
ATOM     29  C18 UNL     1      -0.330  -1.423  -5.691  1.00  0.00     0.069 C   
BRANCH  29  30
ATOM     30  C19 UNL     1       0.456  -1.715  -4.433  1.00  0.00    -0.042 A   
ATOM     31  C20 UNL     1       1.852  -1.564  -4.441  1.00  0.00     0.004 A   
ATOM     32  C24 UNL     1      -0.158  -2.171  -3.261  1.00  0.00     0.043 A   
ATOM     33  C21 UNL     1       2.612  -1.835  -3.300  1.00  0.00     0.003 A   
ATOM     34  C23 UNL     1       0.604  -2.399  -2.118  1.00  0.00     0.123 A   
ATOM     35  C22 UNL     1       1.984  -2.248  -2.129  1.00  0.00     0.039 A   
ATOM     36  F1  UNL     1      -0.014  -2.700  -0.965  1.00  0.00    -0.207 F   
ENDBRANCH  29  30
ENDBRANCH  26  29
ENDBRANCH  25  26
ENDBRANCH   3  25
TORSDOF 11
