REMARK SMILES Cn1cc(Cn2cc([C@@H]([NH2+]Cc3ccc4c(c3)OCO4)C3CCCC3)nn2)c(C(C)(C)C)n1
REMARK SMILES IDX 6 1 7 2 8 3 26 4 27 5 5 7 4 8 2 9 3 10 33 11 28 12 1 13
REMARK SMILES IDX 29 14 30 15 31 16 32 17 9 18 10 19 11 22 12 23 13 24 17 25
REMARK SMILES IDX 14 26 16 27 15 28 18 29 20 30 19 31 21 32 22 33 25 34 23 35
REMARK SMILES IDX 24 36
REMARK H PARENT 7 6 10 20 10 21
ROOT
ATOM     1   N2  UNL     1      -1.163   0.916   0.093  1.00  0.00    -0.208 N   
ATOM     2   C5  UNL     1       0.004   0.440   0.630  1.00  0.00     0.046 A   
ATOM     3   C6  UNL     1       0.959   0.767  -0.305  1.00  0.00     0.127 A   
ATOM     4   N4  UNL     1       0.363   1.428  -1.348  1.00  0.00    -0.132 NA  
ATOM     5   N5  UNL     1      -0.928   1.531  -1.084  1.00  0.00    -0.076 NA  
ATOM     6   H7  UNL     1       0.034  -0.081   1.577  1.00  0.00     0.083 HD  
ENDROOT
BRANCH   1   7
ATOM     7   C4  UNL     1      -2.498   0.898   0.675  1.00  0.00     0.172 C   
BRANCH   7   8
ATOM     8   C3  UNL     1      -3.103  -0.462   0.603  1.00  0.00     0.011 A   
ATOM     9   N1  UNL     1      -3.607  -2.554   1.060  1.00  0.00    -0.235 N   
ATOM     10  C2  UNL     1      -2.822  -1.518   1.454  1.00  0.00     0.102 A   
ATOM     11  N6  UNL     1      -4.386  -2.256   0.018  1.00  0.00    -0.186 NA  
ATOM     12  C21 UNL     1      -4.108  -0.978  -0.282  1.00  0.00     0.070 A   
ATOM     13  C1  UNL     1      -3.680  -3.870   1.649  1.00  0.00     0.159 C   
BRANCH  12  14
ATOM     14  C22 UNL     1      -4.882  -0.299  -1.416  1.00  0.00     0.006 C   
ATOM     15  C23 UNL     1      -3.934   0.377  -2.422  1.00  0.00     0.017 C   
ATOM     16  C24 UNL     1      -5.732  -1.317  -2.220  1.00  0.00     0.017 C   
ATOM     17  C25 UNL     1      -5.852   0.750  -0.838  1.00  0.00     0.017 C   
ENDBRANCH  12  14
ENDBRANCH   7   8
ENDBRANCH   1   7
BRANCH   3  18
ATOM     18  C7  UNL     1       2.423   0.481  -0.375  1.00  0.00     0.117 C   
BRANCH  18  19
ATOM     19  N3  UNL     1       2.781   0.165  -1.814  1.00  0.00     0.249 N   
ATOM     20  H9  UNL     1       3.579   0.723  -2.129  1.00  0.00     0.199 HD  
ATOM     21  H10 UNL     1       1.986   0.504  -2.382  1.00  0.00     0.199 HD  
BRANCH  19  22
ATOM     22  C8  UNL     1       3.015  -1.269  -2.137  1.00  0.00     0.164 C   
BRANCH  22  23
ATOM     23  C9  UNL     1       1.827  -2.157  -1.894  1.00  0.00    -0.002 A   
ATOM     24  C10 UNL     1       1.886  -3.174  -0.910  1.00  0.00     0.012 A   
ATOM     25  C14 UNL     1       0.648  -1.991  -2.641  1.00  0.00     0.045 A   
ATOM     26  C11 UNL     1       0.791  -4.013  -0.674  1.00  0.00     0.037 A   
ATOM     27  C13 UNL     1      -0.412  -2.834  -2.382  1.00  0.00     0.109 A   
ATOM     28  C12 UNL     1      -0.343  -3.818  -1.428  1.00  0.00     0.108 A   
ATOM     29  O1  UNL     1      -1.611  -2.812  -3.018  1.00  0.00    -0.316 OA  
ATOM     30  O2  UNL     1      -1.486  -4.548  -1.350  1.00  0.00    -0.316 OA  
ATOM     31  C15 UNL     1      -2.274  -3.934  -2.393  1.00  0.00     0.337 C   
ENDBRANCH  22  23
ENDBRANCH  19  22
ENDBRANCH  18  19
BRANCH  18  32
ATOM     32  C16 UNL     1       3.272   1.677   0.095  1.00  0.00     0.043 C   
ATOM     33  C17 UNL     1       4.779   1.405   0.109  1.00  0.00     0.010 C   
ATOM     34  C20 UNL     1       3.013   2.072   1.555  1.00  0.00     0.010 C   
ATOM     35  C18 UNL     1       5.336   2.537   0.961  1.00  0.00     0.001 C   
ATOM     36  C19 UNL     1       4.256   2.839   1.996  1.00  0.00     0.001 C   
ENDBRANCH  18  32
ENDBRANCH   3  18
TORSDOF 8
