REMARK SMILES CC(=O)c1cccc(-n2cc([C@@H]([NH2+]Cc3ccc4c(c3)OCO4)C(C)C)nn2)c1
REMARK SMILES IDX 9 1 10 2 11 3 27 4 28 5 8 6 4 7 5 8 29 9 6 10 7 11 2 12 1 13
REMARK SMILES IDX 3 14 12 15 13 16 14 19 15 20 16 21 20 22 17 23 19 24 18 25
REMARK SMILES IDX 21 26 23 27 22 28 24 29 25 30 26 31
REMARK H PARENT 13 17 13 18
ROOT
ATOM     1   N1  UNL     1       0.445   0.254  -1.341  1.00  0.00    -0.181 N   
ATOM     2   C8  UNL     1      -0.717  -0.198  -0.746  1.00  0.00     0.135 A   
ATOM     3   C9  UNL     1      -1.713   0.600  -1.262  1.00  0.00     0.127 A   
ATOM     4   N3  UNL     1      -1.171   1.466  -2.168  1.00  0.00    -0.131 NA  
ATOM     5   N4  UNL     1       0.130   1.233  -2.228  1.00  0.00    -0.071 NA  
ENDROOT
BRANCH   1   6
ATOM     6   C7  UNL     1       1.785  -0.134  -1.092  1.00  0.00     0.058 A   
ATOM     7   C3  UNL     1       3.426  -1.395   0.191  1.00  0.00     0.019 A   
ATOM     8   C4  UNL     1       4.452  -0.845  -0.584  1.00  0.00     0.012 A   
ATOM     9   C22 UNL     1       2.091  -1.041  -0.070  1.00  0.00     0.037 A   
ATOM     10  C5  UNL     1       4.147   0.055  -1.607  1.00  0.00     0.003 A   
ATOM     11  C6  UNL     1       2.821   0.415  -1.860  1.00  0.00     0.026 A   
BRANCH   7  12
ATOM     12  C2  UNL     1       3.694  -2.338   1.316  1.00  0.00     0.159 C   
ATOM     13  C1  UNL     1       5.088  -2.872   1.512  1.00  0.00     0.093 C   
ATOM     14  O1  UNL     1       2.773  -2.651   2.068  1.00  0.00    -0.295 OA  
ENDBRANCH   7  12
ENDBRANCH   1   6
BRANCH   3  15
ATOM     15  C10 UNL     1      -3.160   0.727  -0.903  1.00  0.00     0.117 C   
BRANCH  15  16
ATOM     16  N2  UNL     1      -3.431   2.193  -0.598  1.00  0.00     0.249 N   
ATOM     17  H9  UNL     1      -2.734   2.728  -1.140  1.00  0.00     0.199 HD  
ATOM     18  H10 UNL     1      -4.336   2.491  -0.969  1.00  0.00     0.199 HD  
BRANCH  16  19
ATOM     19  C11 UNL     1      -3.333   2.607   0.834  1.00  0.00     0.164 C   
BRANCH  19  20
ATOM     20  C12 UNL     1      -1.991   2.341   1.457  1.00  0.00    -0.002 A   
ATOM     21  C13 UNL     1      -0.860   3.108   1.086  1.00  0.00     0.012 A   
ATOM     22  C17 UNL     1      -1.836   1.283   2.370  1.00  0.00     0.045 A   
ATOM     23  C14 UNL     1       0.411   2.809   1.593  1.00  0.00     0.037 A   
ATOM     24  C16 UNL     1      -0.570   1.013   2.846  1.00  0.00     0.109 A   
ATOM     25  C15 UNL     1       0.524   1.750   2.465  1.00  0.00     0.108 A   
ATOM     26  O2  UNL     1      -0.247   0.006   3.699  1.00  0.00    -0.316 OA  
ATOM     27  O3  UNL     1       1.673   1.300   3.030  1.00  0.00    -0.316 OA  
ATOM     28  C18 UNL     1       1.178   0.211   3.841  1.00  0.00     0.337 C   
ENDBRANCH  19  20
ENDBRANCH  16  19
ENDBRANCH  15  16
BRANCH  15  29
ATOM     29  C19 UNL     1      -4.112   0.254  -2.034  1.00  0.00     0.037 C   
ATOM     30  C20 UNL     1      -3.790  -1.180  -2.482  1.00  0.00     0.014 C   
ATOM     31  C21 UNL     1      -5.585   0.297  -1.601  1.00  0.00     0.014 C   
ENDBRANCH  15  29
ENDBRANCH   3  15
TORSDOF 7
