REMARK SMILES CC(C)(O)c1cccc(Cn2cc([C@@H]([NH2+]Cc3ccc4c(c3)OCO4)C3CCCCC3)nn2)n1
REMARK SMILES IDX 11 1 12 2 13 3 32 4 33 5 10 7 9 8 5 9 6 10 34 11 7 12 8 13
REMARK SMILES IDX 2 14 1 15 3 16 4 17 14 19 15 20 16 23 17 24 18 25 22 26
REMARK SMILES IDX 19 27 21 28 20 29 23 30 25 31 24 32 26 33 27 34 31 35 28 36
REMARK SMILES IDX 30 37 29 38
REMARK H PARENT 12 6 4 18 15 21 15 22
ROOT
ATOM     1   N1  UNL     1      -0.737  -1.083   2.461  1.00  0.00    -0.206 N   
ATOM     2   C10 UNL     1      -0.903  -0.437   1.266  1.00  0.00     0.046 A   
ATOM     3   C11 UNL     1      -0.779  -1.433   0.327  1.00  0.00     0.127 A   
ATOM     4   N3  UNL     1      -0.569  -2.630   0.966  1.00  0.00    -0.132 NA  
ATOM     5   N4  UNL     1      -0.530  -2.402   2.269  1.00  0.00    -0.076 NA  
ATOM     6   H13 UNL     1      -1.059   0.634   1.208  1.00  0.00     0.083 HD  
ENDROOT
BRANCH   1   7
ATOM     7   C9  UNL     1      -0.727  -0.512   3.794  1.00  0.00     0.190 C   
BRANCH   7   8
ATOM     8   C8  UNL     1       0.598   0.151   4.055  1.00  0.00     0.060 A   
ATOM     9   C4  UNL     1       1.959   2.035   3.764  1.00  0.00     0.072 A   
ATOM     10  C5  UNL     1       3.013   1.414   4.426  1.00  0.00     0.027 A   
ATOM     11  N5  UNL     1       0.757   1.414   3.576  1.00  0.00    -0.253 NA  
ATOM     12  C6  UNL     1       2.837   0.118   4.903  1.00  0.00     0.004 A   
ATOM     13  C7  UNL     1       1.619  -0.526   4.713  1.00  0.00     0.025 A   
BRANCH   9  14
ATOM     14  C2  UNL     1       2.072   3.451   3.193  1.00  0.00     0.101 C   
ATOM     15  C1  UNL     1       2.245   4.488   4.304  1.00  0.00     0.049 C   
ATOM     16  C3  UNL     1       3.188   3.560   2.151  1.00  0.00     0.049 C   
BRANCH  14  17
ATOM     17  O1  UNL     1       0.843   3.773   2.510  1.00  0.00    -0.384 OA  
ATOM     18  H7  UNL     1       0.221   3.065   2.776  1.00  0.00     0.211 HD  
ENDBRANCH  14  17
ENDBRANCH   9  14
ENDBRANCH   7   8
ENDBRANCH   1   7
BRANCH   3  19
ATOM     19  C12 UNL     1      -0.779  -1.379  -1.168  1.00  0.00     0.117 C   
BRANCH  19  20
ATOM     20  N2  UNL     1       0.027  -2.525  -1.734  1.00  0.00     0.249 N   
ATOM     21  H15 UNL     1      -0.275  -3.368  -1.225  1.00  0.00     0.199 HD  
ATOM     22  H16 UNL     1      -0.189  -2.674  -2.723  1.00  0.00     0.199 HD  
BRANCH  20  23
ATOM     23  C13 UNL     1       1.509  -2.427  -1.569  1.00  0.00     0.164 C   
BRANCH  23  24
ATOM     24  C14 UNL     1       2.112  -1.299  -2.361  1.00  0.00    -0.002 A   
ATOM     25  C15 UNL     1       2.613  -0.151  -1.700  1.00  0.00     0.012 A   
ATOM     26  C19 UNL     1       2.149  -1.359  -3.765  1.00  0.00     0.045 A   
ATOM     27  C16 UNL     1       3.135   0.927  -2.424  1.00  0.00     0.037 A   
ATOM     28  C18 UNL     1       2.665  -0.276  -4.448  1.00  0.00     0.109 A   
ATOM     29  C17 UNL     1       3.143   0.834  -3.797  1.00  0.00     0.108 A   
ATOM     30  O2  UNL     1       2.757  -0.167  -5.799  1.00  0.00    -0.316 OA  
ATOM     31  O3  UNL     1       3.600   1.781  -4.656  1.00  0.00    -0.316 OA  
ATOM     32  C20 UNL     1       3.347   1.147  -5.930  1.00  0.00     0.337 C   
ENDBRANCH  23  24
ENDBRANCH  20  23
ENDBRANCH  19  20
BRANCH  19  33
ATOM     33  C21 UNL     1      -2.215  -1.378  -1.761  1.00  0.00     0.043 C   
ATOM     34  C22 UNL     1      -2.982  -2.701  -1.559  1.00  0.00     0.010 C   
ATOM     35  C26 UNL     1      -2.210  -0.985  -3.252  1.00  0.00     0.010 C   
ATOM     36  C23 UNL     1      -4.395  -2.626  -2.136  1.00  0.00     0.001 C   
ATOM     37  C25 UNL     1      -3.625  -0.916  -3.823  1.00  0.00     0.001 C   
ATOM     38  C24 UNL     1      -4.383  -2.222  -3.606  1.00  0.00     0.000 C   
ENDBRANCH  19  33
ENDBRANCH   3  19
TORSDOF 9
