REMARK SMILES O[C@@H](Cn1cc([C@@H]([NH2+]Cc2ccc3c(c2)OCO3)C2CCCC2)nn1)c1ccccc1Cl
REMARK SMILES IDX 4 1 5 2 6 3 24 4 25 5 3 7 2 8 1 9 26 11 27 12 31 13 28 14
REMARK SMILES IDX 30 15 29 16 32 17 7 18 8 19 9 22 10 23 11 24 15 25 12 26
REMARK SMILES IDX 14 27 13 28 16 29 18 30 17 31 19 32 20 33 23 34 21 35 22 36
REMARK H PARENT 5 6 1 10 8 20 8 21
ROOT
ATOM     1   N1  UNL     1      -1.917  -2.222   1.429  1.00  0.00    -0.209 N   
ATOM     2   C3  UNL     1      -1.554  -0.927   1.674  1.00  0.00     0.045 A   
ATOM     3   C4  UNL     1      -1.252  -0.429   0.426  1.00  0.00     0.127 A   
ATOM     4   N3  UNL     1      -1.458  -1.407  -0.513  1.00  0.00    -0.132 NA  
ATOM     5   N4  UNL     1      -1.858  -2.500   0.114  1.00  0.00    -0.076 NA  
ATOM     6   H5  UNL     1      -1.528  -0.510   2.671  1.00  0.00     0.083 HD  
ENDROOT
BRANCH   1   7
ATOM     7   C2  UNL     1      -2.304  -3.241   2.377  1.00  0.00     0.170 C   
BRANCH   7   8
ATOM     8   C1  UNL     1      -1.151  -4.177   2.756  1.00  0.00     0.165 C   
BRANCH   8   9
ATOM     9   O1  UNL     1      -1.708  -5.318   3.429  1.00  0.00    -0.387 OA  
ATOM     10  H1  UNL     1      -0.963  -5.872   3.725  1.00  0.00     0.211 HD  
ENDBRANCH   8   9
BRANCH   8  11
ATOM     11  C19 UNL     1      -0.131  -3.516   3.669  1.00  0.00     0.001 A   
ATOM     12  C20 UNL     1      -0.425  -3.383   5.042  1.00  0.00     0.008 A   
ATOM     13  C24 UNL     1       1.098  -3.012   3.208  1.00  0.00     0.046 A   
ATOM     14  C21 UNL     1       0.477  -2.782   5.921  1.00  0.00     0.000 A   
ATOM     15  C23 UNL     1       2.002  -2.411   4.093  1.00  0.00     0.021 A   
ATOM     16  C22 UNL     1       1.693  -2.300   5.447  1.00  0.00     0.002 A   
ATOM     17  CL1 UNL     1       1.559  -3.075   1.543  1.00  0.00    -0.084 Cl  
ENDBRANCH   8  11
ENDBRANCH   7   8
ENDBRANCH   1   7
BRANCH   3  18
ATOM     18  C5  UNL     1      -0.733   0.904  -0.003  1.00  0.00     0.117 C   
BRANCH  18  19
ATOM     19  N2  UNL     1       0.100   0.768  -1.247  1.00  0.00     0.249 N   
ATOM     20  H7  UNL     1       0.264   1.672  -1.700  1.00  0.00     0.199 HD  
ATOM     21  H8  UNL     1      -0.442   0.200  -1.913  1.00  0.00     0.199 HD  
BRANCH  19  22
ATOM     22  C6  UNL     1       1.413   0.082  -1.067  1.00  0.00     0.164 C   
BRANCH  22  23
ATOM     23  C7  UNL     1       2.201   0.126  -2.345  1.00  0.00    -0.002 A   
ATOM     24  C8  UNL     1       1.907  -0.774  -3.398  1.00  0.00     0.012 A   
ATOM     25  C12 UNL     1       3.197   1.100  -2.527  1.00  0.00     0.045 A   
ATOM     26  C9  UNL     1       2.595  -0.706  -4.616  1.00  0.00     0.037 A   
ATOM     27  C11 UNL     1       3.859   1.137  -3.736  1.00  0.00     0.109 A   
ATOM     28  C10 UNL     1       3.565   0.262  -4.753  1.00  0.00     0.108 A   
ATOM     29  O2  UNL     1       4.838   2.014  -4.074  1.00  0.00    -0.316 OA  
ATOM     30  O3  UNL     1       4.323   0.479  -5.859  1.00  0.00    -0.316 OA  
ATOM     31  C13 UNL     1       5.157   1.569  -5.412  1.00  0.00     0.337 C   
ENDBRANCH  22  23
ENDBRANCH  19  22
ENDBRANCH  18  19
BRANCH  18  32
ATOM     32  C14 UNL     1      -1.881   1.910  -0.219  1.00  0.00     0.043 C   
ATOM     33  C15 UNL     1      -1.438   3.362  -0.407  1.00  0.00     0.010 C   
ATOM     34  C18 UNL     1      -2.765   1.685  -1.448  1.00  0.00     0.010 C   
ATOM     35  C16 UNL     1      -2.681   4.069  -0.945  1.00  0.00     0.001 C   
ATOM     36  C17 UNL     1      -3.559   2.982  -1.563  1.00  0.00     0.001 C   
ENDBRANCH  18  32
ENDBRANCH   3  18
TORSDOF 9
