REMARK SMILES O[C@H](Cn1cc([C@@H]([NH2+]Cc2ccc3c(c2)OCO3)C2CCCC2)nn1)c1ccccc1Cl
REMARK SMILES IDX 4 1 5 2 6 3 24 4 25 5 3 7 2 8 1 9 26 11 27 12 31 13 28 14
REMARK SMILES IDX 30 15 29 16 32 17 7 18 8 19 9 22 10 23 11 24 15 25 12 26
REMARK SMILES IDX 14 27 13 28 16 29 18 30 17 31 19 32 20 33 23 34 21 35 22 36
REMARK H PARENT 5 6 1 10 8 20 8 21
ROOT
ATOM     1   N1  UNL     1      -2.937  -1.452   0.019  1.00  0.00    -0.209 N   
ATOM     2   C3  UNL     1      -1.967  -0.579   0.422  1.00  0.00     0.045 A   
ATOM     3   C4  UNL     1      -0.955  -0.760  -0.496  1.00  0.00     0.127 A   
ATOM     4   N3  UNL     1      -1.318  -1.754  -1.370  1.00  0.00    -0.132 NA  
ATOM     5   N4  UNL     1      -2.518  -2.188  -1.026  1.00  0.00    -0.076 NA  
ATOM     6   H5  UNL     1      -2.098   0.088   1.263  1.00  0.00     0.083 HD  
ENDROOT
BRANCH   1   7
ATOM     7   C2  UNL     1      -4.257  -1.644   0.571  1.00  0.00     0.170 C   
BRANCH   7   8
ATOM     8   C1  UNL     1      -5.360  -0.978  -0.262  1.00  0.00     0.165 C   
BRANCH   8   9
ATOM     9   O1  UNL     1      -6.625  -1.442   0.234  1.00  0.00    -0.387 OA  
ATOM     10  H1  UNL     1      -7.320  -0.975  -0.266  1.00  0.00     0.211 HD  
ENDBRANCH   8   9
BRANCH   8  11
ATOM     11  C19 UNL     1      -5.326   0.538  -0.181  1.00  0.00     0.001 A   
ATOM     12  C20 UNL     1      -5.830   1.177   0.970  1.00  0.00     0.008 A   
ATOM     13  C24 UNL     1      -4.786   1.345  -1.198  1.00  0.00     0.046 A   
ATOM     14  C21 UNL     1      -5.807   2.568   1.094  1.00  0.00     0.000 A   
ATOM     15  C23 UNL     1      -4.767   2.739  -1.071  1.00  0.00     0.021 A   
ATOM     16  C22 UNL     1      -5.276   3.349   0.073  1.00  0.00     0.002 A   
ATOM     17  CL1 UNL     1      -4.101   0.683  -2.639  1.00  0.00    -0.084 Cl  
ENDBRANCH   8  11
ENDBRANCH   7   8
ENDBRANCH   1   7
BRANCH   3  18
ATOM     18  C5  UNL     1       0.378  -0.099  -0.653  1.00  0.00     0.117 C   
BRANCH  18  19
ATOM     19  N2  UNL     1       1.321  -1.037  -1.380  1.00  0.00     0.249 N   
ATOM     20  H7  UNL     1       2.118  -0.533  -1.774  1.00  0.00     0.199 HD  
ATOM     21  H8  UNL     1       0.782  -1.420  -2.171  1.00  0.00     0.199 HD  
BRANCH  19  22
ATOM     22  C6  UNL     1       1.832  -2.197  -0.590  1.00  0.00     0.164 C   
BRANCH  22  23
ATOM     23  C7  UNL     1       2.780  -1.781   0.502  1.00  0.00    -0.002 A   
ATOM     24  C8  UNL     1       2.398  -1.895   1.860  1.00  0.00     0.012 A   
ATOM     25  C12 UNL     1       4.042  -1.249   0.181  1.00  0.00     0.045 A   
ATOM     26  C9  UNL     1       3.253  -1.477   2.886  1.00  0.00     0.037 A   
ATOM     27  C11 UNL     1       4.859  -0.845   1.216  1.00  0.00     0.109 A   
ATOM     28  C10 UNL     1       4.476  -0.954   2.530  1.00  0.00     0.108 A   
ATOM     29  O2  UNL     1       6.098  -0.303   1.079  1.00  0.00    -0.316 OA  
ATOM     30  O3  UNL     1       5.425  -0.495   3.386  1.00  0.00    -0.316 OA  
ATOM     31  C13 UNL     1       6.467  -0.110   2.464  1.00  0.00     0.337 C   
ENDBRANCH  22  23
ENDBRANCH  19  22
ENDBRANCH  18  19
BRANCH  18  32
ATOM     32  C14 UNL     1       0.281   1.217  -1.454  1.00  0.00     0.043 C   
ATOM     33  C15 UNL     1      -0.567   2.292  -0.751  1.00  0.00     0.010 C   
ATOM     34  C18 UNL     1       1.617   1.939  -1.661  1.00  0.00     0.010 C   
ATOM     35  C16 UNL     1      -0.027   3.643  -1.220  1.00  0.00     0.001 C   
ATOM     36  C17 UNL     1       1.196   3.340  -2.074  1.00  0.00     0.001 C   
ENDBRANCH  18  32
ENDBRANCH   3  18
TORSDOF 9
