REMARK SMILES CC(C)C[C@H]([NH2+]Cc1ccc2c(c1)OCO2)c1cn(CCc2cccs2)nn1
REMARK SMILES IDX 17 1 18 2 19 3 27 4 28 5 5 7 4 8 2 9 1 10 3 11 6 12 7 15
REMARK SMILES IDX 8 16 9 17 13 18 10 19 12 20 11 21 14 22 16 23 15 24 20 25
REMARK SMILES IDX 21 26 22 27 23 28 26 29 24 30 25 31
REMARK H PARENT 18 6 6 13 6 14
ROOT
ATOM     1   C14 UNL     1       1.078  -0.165   0.464  1.00  0.00     0.127 A   
ATOM     2   C15 UNL     1       1.781   0.044   1.629  1.00  0.00     0.045 A   
ATOM     3   N2  UNL     1       3.075   0.182   1.210  1.00  0.00    -0.212 N   
ATOM     4   N3  UNL     1       3.150   0.160  -0.131  1.00  0.00    -0.076 NA  
ATOM     5   N4  UNL     1       1.937  -0.082  -0.602  1.00  0.00    -0.132 NA  
ATOM     6   H20 UNL     1       1.505   0.069   2.677  1.00  0.00     0.083 HD  
ENDROOT
BRANCH   1   7
ATOM     7   C5  UNL     1      -0.372  -0.408   0.219  1.00  0.00     0.114 C   
BRANCH   7   8
ATOM     8   C4  UNL     1      -0.689  -1.894  -0.043  1.00  0.00     0.064 C   
BRANCH   8   9
ATOM     9   C2  UNL     1      -0.348  -2.861   1.111  1.00  0.00    -0.012 C   
ATOM     10  C1  UNL     1      -1.099  -2.526   2.399  1.00  0.00     0.007 C   
ATOM     11  C3  UNL     1      -0.663  -4.298   0.686  1.00  0.00     0.007 C   
ENDBRANCH   8   9
ENDBRANCH   7   8
BRANCH   7  12
ATOM     12  N1  UNL     1      -0.816   0.351  -1.010  1.00  0.00     0.249 N   
ATOM     13  H11 UNL     1      -0.118   0.161  -1.747  1.00  0.00     0.199 HD  
ATOM     14  H12 UNL     1      -1.711  -0.004  -1.363  1.00  0.00     0.199 HD  
BRANCH  12  15
ATOM     15  C6  UNL     1      -0.902   1.830  -0.855  1.00  0.00     0.164 C   
BRANCH  15  16
ATOM     16  C7  UNL     1      -1.405   2.459  -2.125  1.00  0.00    -0.002 A   
ATOM     17  C8  UNL     1      -2.790   2.682  -2.315  1.00  0.00     0.012 A   
ATOM     18  C12 UNL     1      -0.503   2.776  -3.159  1.00  0.00     0.045 A   
ATOM     19  C9  UNL     1      -3.270   3.229  -3.511  1.00  0.00     0.037 A   
ATOM     20  C11 UNL     1      -1.012   3.306  -4.325  1.00  0.00     0.109 A   
ATOM     21  C10 UNL     1      -2.356   3.529  -4.496  1.00  0.00     0.108 A   
ATOM     22  O1  UNL     1      -0.286   3.648  -5.423  1.00  0.00    -0.316 OA  
ATOM     23  O2  UNL     1      -2.644   4.048  -5.717  1.00  0.00    -0.316 OA  
ATOM     24  C13 UNL     1      -1.328   4.118  -6.305  1.00  0.00     0.337 C   
ENDBRANCH  15  16
ENDBRANCH  12  15
ENDBRANCH   7  12
ENDBRANCH   1   7
BRANCH   3  25
ATOM     25  C16 UNL     1       4.265   0.354   2.016  1.00  0.00     0.139 C   
BRANCH  25  26
ATOM     26  C17 UNL     1       4.951  -0.974   2.343  1.00  0.00     0.064 C   
BRANCH  26  27
ATOM     27  C18 UNL     1       4.129  -1.839   3.258  1.00  0.00    -0.009 A   
ATOM     28  C19 UNL     1       3.418  -2.983   2.943  1.00  0.00     0.011 A   
ATOM     29  S1  UNL     1       3.995  -1.456   4.925  1.00  0.00    -0.102 S   
ATOM     30  C20 UNL     1       2.737  -3.523   4.072  1.00  0.00     0.008 A   
ATOM     31  C21 UNL     1       2.967  -2.789   5.218  1.00  0.00     0.046 A   
ENDBRANCH  26  27
ENDBRANCH  25  26
ENDBRANCH   3  25
TORSDOF 9
