REMARK SMILES Fc1ncccc1CCn1cc([C@@H]([NH2+]Cc2ccc3c(c2)OCO3)C2CCCC2)nn1
REMARK SMILES IDX 10 1 11 2 12 3 30 4 31 5 9 7 8 8 7 9 2 10 3 11 4 12 6 13
REMARK SMILES IDX 5 14 1 15 13 16 14 17 15 20 16 21 17 22 21 23 18 24 20 25
REMARK SMILES IDX 19 26 22 27 24 28 23 29 25 30 26 31 29 32 27 33 28 34
REMARK H PARENT 11 6 14 18 14 19
ROOT
ATOM     1   N2  UNL     1       2.756   0.595   2.609  1.00  0.00    -0.212 N   
ATOM     2   C8  UNL     1       1.447   0.337   2.300  1.00  0.00     0.045 A   
ATOM     3   C9  UNL     1       1.535  -0.531   1.229  1.00  0.00     0.127 A   
ATOM     4   N4  UNL     1       2.846  -0.885   1.045  1.00  0.00    -0.132 NA  
ATOM     5   N5  UNL     1       3.579  -0.217   1.919  1.00  0.00    -0.076 NA  
ATOM     6   H8  UNL     1       0.630   0.904   2.723  1.00  0.00     0.083 HD  
ENDROOT
BRANCH   1   7
ATOM     7   C7  UNL     1       3.293   1.790   3.233  1.00  0.00     0.139 C   
BRANCH   7   8
ATOM     8   C6  UNL     1       3.079   3.066   2.391  1.00  0.00     0.061 C   
BRANCH   8   9
ATOM     9   C5  UNL     1       3.415   2.896   0.929  1.00  0.00     0.009 A   
ATOM     10  C1  UNL     1       2.424   2.575   0.003  1.00  0.00     0.216 A   
ATOM     11  N1  UNL     1       2.643   2.169  -1.270  1.00  0.00    -0.228 NA  
ATOM     12  C2  UNL     1       3.932   2.224  -1.679  1.00  0.00     0.114 A   
ATOM     13  C4  UNL     1       4.730   2.912   0.469  1.00  0.00     0.010 A   
ATOM     14  C3  UNL     1       4.991   2.591  -0.861  1.00  0.00     0.021 A   
ATOM     15  F1  UNL     1       1.144   2.535   0.405  1.00  0.00    -0.185 F   
ENDBRANCH   8   9
ENDBRANCH   7   8
ENDBRANCH   1   7
BRANCH   3  16
ATOM     16  C10 UNL     1       0.515  -0.902   0.196  1.00  0.00     0.117 C   
BRANCH  16  17
ATOM     17  N3  UNL     1       1.097  -0.532  -1.153  1.00  0.00     0.249 N   
ATOM     18  H10 UNL     1       1.952  -1.087  -1.286  1.00  0.00     0.199 HD  
ATOM     19  H11 UNL     1       1.460   0.435  -1.083  1.00  0.00     0.199 HD  
BRANCH  17  20
ATOM     20  C11 UNL     1       0.233  -0.586  -2.356  1.00  0.00     0.164 C   
BRANCH  20  21
ATOM     21  C12 UNL     1      -0.971   0.309  -2.269  1.00  0.00    -0.002 A   
ATOM     22  C13 UNL     1      -0.823   1.715  -2.347  1.00  0.00     0.012 A   
ATOM     23  C17 UNL     1      -2.251  -0.239  -2.073  1.00  0.00     0.045 A   
ATOM     24  C14 UNL     1      -1.927   2.565  -2.224  1.00  0.00     0.037 A   
ATOM     25  C16 UNL     1      -3.318   0.627  -1.954  1.00  0.00     0.109 A   
ATOM     26  C15 UNL     1      -3.161   1.990  -2.027  1.00  0.00     0.108 A   
ATOM     27  O1  UNL     1      -4.611   0.263  -1.749  1.00  0.00    -0.316 OA  
ATOM     28  O2  UNL     1      -4.336   2.655  -1.884  1.00  0.00    -0.316 OA  
ATOM     29  C18 UNL     1      -5.259   1.555  -1.731  1.00  0.00     0.337 C   
ENDBRANCH  20  21
ENDBRANCH  17  20
ENDBRANCH  16  17
BRANCH  16  30
ATOM     30  C19 UNL     1       0.080  -2.378   0.219  1.00  0.00     0.043 C   
ATOM     31  C20 UNL     1      -0.532  -2.841   1.556  1.00  0.00     0.010 C   
ATOM     32  C23 UNL     1       1.154  -3.422  -0.104  1.00  0.00     0.010 C   
ATOM     33  C21 UNL     1      -0.018  -4.261   1.792  1.00  0.00     0.001 C   
ATOM     34  C22 UNL     1       0.569  -4.706   0.463  1.00  0.00     0.001 C   
ENDBRANCH  16  30
ENDBRANCH   3  16
TORSDOF 8
