REMARK SMILES C[C@@H](c1ccncc1)n1cc([C@@H]([NH2+]Cc2ccc3c(c2)OCO3)C2CCCC2)nn1
REMARK SMILES IDX 12 1 11 2 9 3 10 4 30 5 29 6 2 8 1 9 3 10 4 11 8 12 5 13
REMARK SMILES IDX 7 14 6 15 13 16 14 19 15 20 16 21 20 22 17 23 19 24 18 25
REMARK SMILES IDX 21 26 23 27 22 28 24 29 25 30 28 31 26 32 27 33
REMARK H PARENT 10 7 13 17 13 18
ROOT
ATOM     1   C10 UNL     1       0.898  -0.610   1.162  1.00  0.00     0.117 C   
ENDROOT
BRANCH   1   2
ATOM     2   C9  UNL     1       0.557  -1.529   0.036  1.00  0.00     0.127 A   
ATOM     3   N2  UNL     1       0.082  -2.471  -1.856  1.00  0.00    -0.205 N   
ATOM     4   C8  UNL     1       0.689  -1.364  -1.324  1.00  0.00     0.046 A   
ATOM     5   N5  UNL     1      -0.374  -3.277  -0.875  1.00  0.00    -0.075 NA  
ATOM     6   N4  UNL     1      -0.068  -2.722   0.287  1.00  0.00    -0.132 NA  
ATOM     7   H9  UNL     1       1.089  -0.571  -1.941  1.00  0.00     0.083 HD  
BRANCH   3   8
ATOM     8   C2  UNL     1      -0.208  -2.725  -3.267  1.00  0.00     0.126 C   
ATOM     9   C1  UNL     1      -0.328  -4.212  -3.616  1.00  0.00     0.036 C   
BRANCH   8  10
ATOM     10  C3  UNL     1      -1.425  -1.909  -3.674  1.00  0.00    -0.023 A   
ATOM     11  C4  UNL     1      -1.272  -0.761  -4.463  1.00  0.00     0.026 A   
ATOM     12  C7  UNL     1      -2.715  -2.241  -3.237  1.00  0.00     0.026 A   
ATOM     13  C5  UNL     1      -2.392   0.001  -4.759  1.00  0.00     0.111 A   
ATOM     14  C6  UNL     1      -3.772  -1.416  -3.587  1.00  0.00     0.111 A   
ATOM     15  N1  UNL     1      -3.632  -0.294  -4.320  1.00  0.00    -0.265 NA  
ENDBRANCH   8  10
ENDBRANCH   3   8
ENDBRANCH   1   2
BRANCH   1  16
ATOM     16  N3  UNL     1      -0.203  -0.593   2.204  1.00  0.00     0.249 N   
ATOM     17  H11 UNL     1      -0.254  -1.541   2.598  1.00  0.00     0.199 HD  
ATOM     18  H12 UNL     1       0.048   0.043   2.965  1.00  0.00     0.199 HD  
BRANCH  16  19
ATOM     19  C11 UNL     1      -1.582  -0.245   1.733  1.00  0.00     0.164 C   
BRANCH  19  20
ATOM     20  C12 UNL     1      -1.667   1.049   0.973  1.00  0.00    -0.002 A   
ATOM     21  C13 UNL     1      -2.045   1.041  -0.392  1.00  0.00     0.012 A   
ATOM     22  C17 UNL     1      -1.367   2.270   1.599  1.00  0.00     0.045 A   
ATOM     23  C14 UNL     1      -2.112   2.227  -1.130  1.00  0.00     0.037 A   
ATOM     24  C16 UNL     1      -1.440   3.422   0.841  1.00  0.00     0.109 A   
ATOM     25  C15 UNL     1      -1.798   3.401  -0.484  1.00  0.00     0.108 A   
ATOM     26  O1  UNL     1      -1.175   4.677   1.288  1.00  0.00    -0.316 OA  
ATOM     27  O2  UNL     1      -1.802   4.641  -1.039  1.00  0.00    -0.316 OA  
ATOM     28  C18 UNL     1      -1.447   5.455   0.099  1.00  0.00     0.337 C   
ENDBRANCH  19  20
ENDBRANCH  16  19
ENDBRANCH   1  16
BRANCH   1  29
ATOM     29  C19 UNL     1       2.214  -1.017   1.857  1.00  0.00     0.043 C   
ATOM     30  C20 UNL     1       2.635  -0.100   3.008  1.00  0.00     0.010 C   
ATOM     31  C23 UNL     1       3.435  -0.947   0.929  1.00  0.00     0.010 C   
ATOM     32  C21 UNL     1       4.096  -0.462   3.232  1.00  0.00     0.001 C   
ATOM     33  C22 UNL     1       4.646  -0.790   1.848  1.00  0.00     0.001 C   
ENDBRANCH   1  29
TORSDOF 7
