REMARK SMILES C[C@H](c1ccncc1)n1cc([C@@H]([NH2+]Cc2ccc3c(c2)OCO3)C2CCCC2)nn1
REMARK SMILES IDX 12 1 11 2 9 3 10 4 30 5 29 6 2 8 1 9 3 10 4 11 8 12 5 13
REMARK SMILES IDX 7 14 6 15 13 16 14 19 15 20 16 21 20 22 17 23 19 24 18 25
REMARK SMILES IDX 21 26 23 27 22 28 24 29 25 30 28 31 26 32 27 33
REMARK H PARENT 10 7 13 17 13 18
ROOT
ATOM     1   C10 UNL     1       0.715   0.465  -0.967  1.00  0.00     0.117 C   
ENDROOT
BRANCH   1   2
ATOM     2   C9  UNL     1       0.549  -0.901  -1.549  1.00  0.00     0.127 A   
ATOM     3   N2  UNL     1      -0.095  -2.829  -2.299  1.00  0.00    -0.205 N   
ATOM     4   C8  UNL     1      -0.579  -1.620  -1.874  1.00  0.00     0.046 A   
ATOM     5   N5  UNL     1       1.252  -2.852  -2.226  1.00  0.00    -0.075 NA  
ATOM     6   N4  UNL     1       1.658  -1.675  -1.779  1.00  0.00    -0.132 NA  
ATOM     7   H9  UNL     1      -1.638  -1.401  -1.831  1.00  0.00     0.083 HD  
BRANCH   3   8
ATOM     8   C2  UNL     1      -0.834  -4.013  -2.743  1.00  0.00     0.126 C   
ATOM     9   C1  UNL     1      -1.508  -3.754  -4.093  1.00  0.00     0.036 C   
BRANCH   8  10
ATOM     10  C3  UNL     1      -1.750  -4.495  -1.628  1.00  0.00    -0.023 A   
ATOM     11  C4  UNL     1      -3.124  -4.227  -1.593  1.00  0.00     0.026 A   
ATOM     12  C7  UNL     1      -1.198  -5.216  -0.557  1.00  0.00     0.026 A   
ATOM     13  C5  UNL     1      -3.867  -4.675  -0.510  1.00  0.00     0.111 A   
ATOM     14  C6  UNL     1      -2.023  -5.622   0.480  1.00  0.00     0.111 A   
ATOM     15  N1  UNL     1      -3.342  -5.353   0.530  1.00  0.00    -0.265 NA  
ENDBRANCH   8  10
ENDBRANCH   3   8
ENDBRANCH   1   2
BRANCH   1  16
ATOM     16  N3  UNL     1       1.869   0.461   0.015  1.00  0.00     0.249 N   
ATOM     17  H11 UNL     1       2.664   0.035  -0.483  1.00  0.00     0.199 HD  
ATOM     18  H12 UNL     1       2.139   1.415   0.262  1.00  0.00     0.199 HD  
BRANCH  16  19
ATOM     19  C11 UNL     1       1.663  -0.317   1.273  1.00  0.00     0.164 C   
BRANCH  19  20
ATOM     20  C12 UNL     1       0.645   0.314   2.181  1.00  0.00    -0.002 A   
ATOM     21  C13 UNL     1       0.967   1.484   2.913  1.00  0.00     0.012 A   
ATOM     22  C17 UNL     1      -0.647  -0.234   2.282  1.00  0.00     0.045 A   
ATOM     23  C14 UNL     1       0.015   2.102   3.732  1.00  0.00     0.037 A   
ATOM     24  C16 UNL     1      -1.562   0.404   3.094  1.00  0.00     0.109 A   
ATOM     25  C15 UNL     1      -1.240   1.538   3.800  1.00  0.00     0.108 A   
ATOM     26  O1  UNL     1      -2.849   0.017   3.290  1.00  0.00    -0.316 OA  
ATOM     27  O2  UNL     1      -2.282   2.004   4.535  1.00  0.00    -0.316 OA  
ATOM     28  C18 UNL     1      -3.295   1.017   4.235  1.00  0.00     0.337 C   
ENDBRANCH  19  20
ENDBRANCH  16  19
ENDBRANCH   1  16
BRANCH   1  29
ATOM     29  C19 UNL     1       1.003   1.525  -2.050  1.00  0.00     0.043 C   
ATOM     30  C20 UNL     1      -0.138   1.690  -3.059  1.00  0.00     0.010 C   
ATOM     31  C23 UNL     1       1.156   2.952  -1.507  1.00  0.00     0.010 C   
ATOM     32  C21 UNL     1       0.192   3.002  -3.753  1.00  0.00     0.001 C   
ATOM     33  C22 UNL     1       0.817   3.880  -2.675  1.00  0.00     0.001 C   
ENDBRANCH   1  29
TORSDOF 7
