REMARK SMILES CC(C)[C@H]([NH2+]Cc1ccc2c(c1)OCO2)c1cn(Cc2ccnc(Cl)c2)nn1
REMARK SMILES IDX 16 1 17 2 18 3 27 4 28 5 4 7 2 8 1 9 3 10 5 11 6 14 7 15
REMARK SMILES IDX 8 16 12 17 9 18 11 19 10 20 13 21 15 22 14 23 19 24 20 25
REMARK SMILES IDX 21 26 26 27 22 28 24 29 23 30 25 31
REMARK H PARENT 17 6 5 12 5 13
ROOT
ATOM     1   C13 UNL     1      -0.900   0.315   1.570  1.00  0.00     0.127 A   
ATOM     2   C14 UNL     1       0.208  -0.456   1.842  1.00  0.00     0.046 A   
ATOM     3   N2  UNL     1      -0.295  -1.723   1.961  1.00  0.00    -0.208 N   
ATOM     4   N4  UNL     1      -1.631  -1.729   1.789  1.00  0.00    -0.076 NA  
ATOM     5   N5  UNL     1      -2.014  -0.487   1.547  1.00  0.00    -0.132 NA  
ATOM     6   H18 UNL     1       1.262  -0.238   1.939  1.00  0.00     0.083 HD  
ENDROOT
BRANCH   1   7
ATOM     7   C4  UNL     1      -1.045   1.776   1.282  1.00  0.00     0.117 C   
BRANCH   7   8
ATOM     8   C2  UNL     1      -1.152   2.623   2.577  1.00  0.00     0.037 C   
ATOM     9   C1  UNL     1      -2.420   2.358   3.399  1.00  0.00     0.014 C   
ATOM     10  C3  UNL     1      -1.028   4.122   2.281  1.00  0.00     0.014 C   
ENDBRANCH   7   8
BRANCH   7  11
ATOM     11  N1  UNL     1      -2.249   2.006   0.396  1.00  0.00     0.249 N   
ATOM     12  H9  UNL     1      -2.859   1.183   0.532  1.00  0.00     0.199 HD  
ATOM     13  H10 UNL     1      -2.797   2.809   0.713  1.00  0.00     0.199 HD  
BRANCH  11  14
ATOM     14  C5  UNL     1      -1.980   2.151  -1.062  1.00  0.00     0.164 C   
BRANCH  14  15
ATOM     15  C6  UNL     1      -1.373   0.935  -1.702  1.00  0.00    -0.002 A   
ATOM     16  C7  UNL     1      -2.148  -0.233  -1.902  1.00  0.00     0.012 A   
ATOM     17  C11 UNL     1      -0.024   0.941  -2.095  1.00  0.00     0.045 A   
ATOM     18  C8  UNL     1      -1.591  -1.376  -2.486  1.00  0.00     0.037 A   
ATOM     19  C10 UNL     1       0.494  -0.202  -2.669  1.00  0.00     0.109 A   
ATOM     20  C9  UNL     1      -0.268  -1.327  -2.862  1.00  0.00     0.108 A   
ATOM     21  O1  UNL     1       1.771  -0.357  -3.106  1.00  0.00    -0.316 OA  
ATOM     22  O2  UNL     1       0.429  -2.331  -3.454  1.00  0.00    -0.316 OA  
ATOM     23  C12 UNL     1       1.716  -1.701  -3.640  1.00  0.00     0.337 C   
ENDBRANCH  14  15
ENDBRANCH  11  14
ENDBRANCH   7  11
ENDBRANCH   1   7
BRANCH   3  24
ATOM     24  C15 UNL     1       0.422  -2.954   2.251  1.00  0.00     0.169 C   
BRANCH  24  25
ATOM     25  C16 UNL     1       1.146  -3.459   1.031  1.00  0.00    -0.024 A   
ATOM     26  C17 UNL     1       0.456  -4.132   0.016  1.00  0.00     0.025 A   
ATOM     27  C20 UNL     1       2.520  -3.248   0.871  1.00  0.00     0.046 A   
ATOM     28  C18 UNL     1       1.158  -4.559  -1.101  1.00  0.00     0.113 A   
ATOM     29  C19 UNL     1       3.125  -3.711  -0.287  1.00  0.00     0.129 A   
ATOM     30  N3  UNL     1       2.480  -4.354  -1.278  1.00  0.00    -0.245 NA  
ATOM     31  CL1 UNL     1       4.796  -3.454  -0.566  1.00  0.00    -0.062 Cl  
ENDBRANCH  24  25
ENDBRANCH   3  24
TORSDOF 7
