REMARK SMILES CC(C)C[C@H]([NH2+]Cc1ccc2c(c1)OCO2)c1cn(Cc2n[nH]c3c2CCC3)nn1
REMARK SMILES IDX 17 1 18 2 19 3 29 4 30 5 5 7 4 8 2 9 1 10 3 11 6 12 7 15
REMARK SMILES IDX 8 16 9 17 13 18 10 19 12 20 11 21 14 22 16 23 15 24 20 25
REMARK SMILES IDX 21 26 22 27 25 28 23 29 24 30 26 31 28 32 27 33
REMARK H PARENT 18 6 6 13 6 14 23 34
ROOT
ATOM     1   C14 UNL     1      -0.038  -0.532   1.358  1.00  0.00     0.127 A   
ATOM     2   C15 UNL     1      -0.177  -0.567   2.727  1.00  0.00     0.046 A   
ATOM     3   N2  UNL     1      -0.097   0.747   3.106  1.00  0.00    -0.206 N   
ATOM     4   N5  UNL     1       0.103   1.541   2.034  1.00  0.00    -0.076 NA  
ATOM     5   N6  UNL     1       0.125   0.771   0.958  1.00  0.00    -0.132 NA  
ATOM     6   H20 UNL     1      -0.342  -1.358   3.446  1.00  0.00     0.083 HD  
ENDROOT
BRANCH   1   7
ATOM     7   C5  UNL     1      -0.085  -1.617   0.332  1.00  0.00     0.114 C   
BRANCH   7   8
ATOM     8   C4  UNL     1       0.918  -2.762   0.571  1.00  0.00     0.064 C   
BRANCH   8   9
ATOM     9   C2  UNL     1       2.402  -2.534   0.200  1.00  0.00    -0.012 C   
ATOM     10  C1  UNL     1       3.187  -3.830   0.437  1.00  0.00     0.007 C   
ATOM     11  C3  UNL     1       3.060  -1.396   0.979  1.00  0.00     0.007 C   
ENDBRANCH   8   9
ENDBRANCH   7   8
BRANCH   7  12
ATOM     12  N1  UNL     1       0.073  -1.029  -1.040  1.00  0.00     0.249 N   
ATOM     13  H11 UNL     1       1.032  -0.678  -1.157  1.00  0.00     0.199 HD  
ATOM     14  H12 UNL     1      -0.484  -0.161  -1.048  1.00  0.00     0.199 HD  
BRANCH  12  15
ATOM     15  C6  UNL     1      -0.332  -1.865  -2.192  1.00  0.00     0.164 C   
BRANCH  15  16
ATOM     16  C7  UNL     1      -0.162  -1.111  -3.479  1.00  0.00    -0.002 A   
ATOM     17  C8  UNL     1       1.061  -1.179  -4.190  1.00  0.00     0.012 A   
ATOM     18  C12 UNL     1      -1.196  -0.289  -3.958  1.00  0.00     0.045 A   
ATOM     19  C9  UNL     1       1.248  -0.449  -5.369  1.00  0.00     0.037 A   
ATOM     20  C11 UNL     1      -0.978   0.418  -5.122  1.00  0.00     0.109 A   
ATOM     21  C10 UNL     1       0.209   0.341  -5.809  1.00  0.00     0.108 A   
ATOM     22  O1  UNL     1      -1.869   1.254  -5.718  1.00  0.00    -0.316 OA  
ATOM     23  O2  UNL     1       0.214   1.116  -6.924  1.00  0.00    -0.316 OA  
ATOM     24  C13 UNL     1      -1.112   1.684  -6.872  1.00  0.00     0.337 C   
ENDBRANCH  15  16
ENDBRANCH  12  15
ENDBRANCH   7  12
ENDBRANCH   1   7
BRANCH   3  25
ATOM     25  C16 UNL     1      -0.151   1.299   4.448  1.00  0.00     0.192 C   
BRANCH  25  26
ATOM     26  C17 UNL     1      -1.544   1.258   4.965  1.00  0.00     0.083 A   
ATOM     27  N3  UNL     1      -2.032   0.149   5.568  1.00  0.00    -0.187 NA  
ATOM     28  C19 UNL     1      -2.513   2.266   4.938  1.00  0.00    -0.004 A   
ATOM     29  N4  UNL     1      -3.294   0.486   5.947  1.00  0.00    -0.242 N   
ATOM     30  C18 UNL     1      -3.600   1.739   5.562  1.00  0.00     0.030 A   
ATOM     31  C20 UNL     1      -2.753   3.652   4.505  1.00  0.00     0.039 C   
ATOM     32  C22 UNL     1      -4.760   2.633   5.676  1.00  0.00     0.054 C   
ATOM     33  C21 UNL     1      -4.307   3.786   4.710  1.00  0.00     0.011 C   
ATOM     34  H23 UNL     1      -3.854  -0.192   6.457  1.00  0.00     0.175 HD  
ENDBRANCH  25  26
ENDBRANCH   3  25
TORSDOF 8
