REMARK SMILES COc1cc(C)ccc1CCn1cc([C@@H]([NH2+]Cc2ccc3c(c2)OCO3)C(C)(C)C)nn1
REMARK SMILES IDX 12 1 13 2 14 3 31 4 32 5 11 7 10 8 9 9 3 10 4 11 5 12 8 13
REMARK SMILES IDX 7 14 6 15 2 16 1 17 15 18 16 19 17 22 18 23 19 24 23 25
REMARK SMILES IDX 20 26 22 27 21 28 24 29 26 30 25 31 27 32 28 33 29 34 30 35
REMARK H PARENT 13 6 16 20 16 21
ROOT
ATOM     1   N1  UNL     1      -1.245  -0.914   2.746  1.00  0.00    -0.212 N   
ATOM     2   C11 UNL     1      -1.990  -1.474   1.746  1.00  0.00     0.045 A   
ATOM     3   C12 UNL     1      -1.046  -1.912   0.844  1.00  0.00     0.127 A   
ATOM     4   N3  UNL     1       0.208  -1.675   1.349  1.00  0.00    -0.132 NA  
ATOM     5   N4  UNL     1       0.071  -1.075   2.518  1.00  0.00    -0.076 NA  
ATOM     6   H14 UNL     1      -3.070  -1.427   1.730  1.00  0.00     0.083 HD  
ENDROOT
BRANCH   1   7
ATOM     7   C10 UNL     1      -1.702  -0.129   3.873  1.00  0.00     0.139 C   
BRANCH   7   8
ATOM     8   C9  UNL     1      -2.415   1.164   3.465  1.00  0.00     0.059 C   
BRANCH   8   9
ATOM     9   C8  UNL     1      -1.579   2.084   2.604  1.00  0.00    -0.016 A   
ATOM     10  C2  UNL     1      -1.851   2.287   1.243  1.00  0.00     0.078 A   
ATOM     11  C3  UNL     1      -1.044   3.121   0.461  1.00  0.00     0.037 A   
ATOM     12  C4  UNL     1       0.048   3.782   1.031  1.00  0.00    -0.049 A   
ATOM     13  C7  UNL     1      -0.494   2.766   3.171  1.00  0.00     0.007 A   
ATOM     14  C6  UNL     1       0.308   3.607   2.394  1.00  0.00     0.004 A   
ATOM     15  C5  UNL     1       0.887   4.713   0.207  1.00  0.00     0.044 C   
BRANCH  10  16
ATOM     16  O1  UNL     1      -2.877   1.599   0.642  1.00  0.00    -0.349 OA  
ATOM     17  C1  UNL     1      -3.967   2.487   0.369  1.00  0.00     0.203 C   
ENDBRANCH  10  16
ENDBRANCH   8   9
ENDBRANCH   7   8
ENDBRANCH   1   7
BRANCH   3  18
ATOM     18  C13 UNL     1      -1.183  -2.397  -0.566  1.00  0.00     0.120 C   
BRANCH  18  19
ATOM     19  N2  UNL     1      -0.161  -1.662  -1.403  1.00  0.00     0.250 N   
ATOM     20  H16 UNL     1       0.013  -2.111  -2.305  1.00  0.00     0.199 HD  
ATOM     21  H17 UNL     1       0.729  -1.705  -0.881  1.00  0.00     0.199 HD  
BRANCH  19  22
ATOM     22  C14 UNL     1      -0.460  -0.216  -1.622  1.00  0.00     0.164 C   
BRANCH  22  23
ATOM     23  C15 UNL     1       0.676   0.458  -2.338  1.00  0.00    -0.002 A   
ATOM     24  C16 UNL     1       1.712   1.073  -1.595  1.00  0.00     0.012 A   
ATOM     25  C20 UNL     1       0.743   0.440  -3.741  1.00  0.00     0.045 A   
ATOM     26  C17 UNL     1       2.795   1.677  -2.240  1.00  0.00     0.037 A   
ATOM     27  C19 UNL     1       1.827   1.041  -4.345  1.00  0.00     0.109 A   
ATOM     28  C18 UNL     1       2.825   1.642  -3.617  1.00  0.00     0.108 A   
ATOM     29  O2  UNL     1       2.045   1.111  -5.684  1.00  0.00    -0.316 OA  
ATOM     30  O3  UNL     1       3.796   2.168  -4.407  1.00  0.00    -0.316 OA  
ATOM     31  C21 UNL     1       3.305   1.820  -5.719  1.00  0.00     0.337 C   
ENDBRANCH  22  23
ENDBRANCH  19  22
ENDBRANCH  18  19
BRANCH  18  32
ATOM     32  C22 UNL     1      -1.036  -3.945  -0.741  1.00  0.00     0.010 C   
ATOM     33  C23 UNL     1      -1.316  -4.347  -2.207  1.00  0.00     0.017 C   
ATOM     34  C24 UNL     1       0.364  -4.465  -0.359  1.00  0.00     0.017 C   
ATOM     35  C25 UNL     1      -2.080  -4.674   0.134  1.00  0.00     0.017 C   
ENDBRANCH  18  32
ENDBRANCH   3  18
TORSDOF 9
