REMARK SMILES CC(C)(C)[C@H]([NH2+]Cc1ccc2c(c1)OCO2)c1cn(Cc2ccc(F)cc2F)nn1
REMARK SMILES IDX 17 1 18 2 19 3 29 4 30 5 5 7 2 8 1 9 3 10 4 11 6 12 7 15
REMARK SMILES IDX 8 16 9 17 13 18 10 19 12 20 11 21 14 22 16 23 15 24 20 25
REMARK SMILES IDX 21 26 22 27 27 28 23 29 26 30 24 31 28 32 25 33
REMARK H PARENT 18 6 6 13 6 14
ROOT
ATOM     1   C14 UNL     1       1.085  -0.115   0.403  1.00  0.00     0.127 A   
ATOM     2   C15 UNL     1       0.327   0.815   1.077  1.00  0.00     0.046 A   
ATOM     3   N2  UNL     1       0.959   2.003   0.828  1.00  0.00    -0.208 N   
ATOM     4   N3  UNL     1       2.047   1.814   0.057  1.00  0.00    -0.076 NA  
ATOM     5   N4  UNL     1       2.135   0.522  -0.212  1.00  0.00    -0.132 NA  
ATOM     6   H20 UNL     1      -0.575   0.751   1.670  1.00  0.00     0.083 HD  
ENDROOT
BRANCH   1   7
ATOM     7   C5  UNL     1       0.900  -1.588   0.194  1.00  0.00     0.120 C   
BRANCH   7   8
ATOM     8   C2  UNL     1       1.588  -2.486   1.281  1.00  0.00     0.010 C   
ATOM     9   C1  UNL     1       3.122  -2.333   1.300  1.00  0.00     0.017 C   
ATOM     10  C3  UNL     1       1.245  -3.974   1.033  1.00  0.00     0.017 C   
ATOM     11  C4  UNL     1       1.049  -2.132   2.685  1.00  0.00     0.017 C   
ENDBRANCH   7   8
BRANCH   7  12
ATOM     12  N1  UNL     1       1.423  -1.935  -1.189  1.00  0.00     0.250 N   
ATOM     13  H11 UNL     1       2.002  -2.778  -1.173  1.00  0.00     0.199 HD  
ATOM     14  H12 UNL     1       2.070  -1.170  -1.442  1.00  0.00     0.199 HD  
BRANCH  12  15
ATOM     15  C6  UNL     1       0.409  -2.068  -2.271  1.00  0.00     0.164 C   
BRANCH  15  16
ATOM     16  C7  UNL     1      -0.380  -0.817  -2.550  1.00  0.00    -0.002 A   
ATOM     17  C8  UNL     1       0.255   0.339  -3.067  1.00  0.00     0.012 A   
ATOM     18  C12 UNL     1      -1.762  -0.788  -2.299  1.00  0.00     0.045 A   
ATOM     19  C9  UNL     1      -0.472   1.508  -3.321  1.00  0.00     0.037 A   
ATOM     20  C11 UNL     1      -2.450   0.376  -2.571  1.00  0.00     0.109 A   
ATOM     21  C10 UNL     1      -1.825   1.492  -3.068  1.00  0.00     0.108 A   
ATOM     22  O1  UNL     1      -3.785   0.563  -2.397  1.00  0.00    -0.316 OA  
ATOM     23  O2  UNL     1      -2.687   2.521  -3.273  1.00  0.00    -0.316 OA  
ATOM     24  C13 UNL     1      -3.941   1.909  -2.900  1.00  0.00     0.337 C   
ENDBRANCH  15  16
ENDBRANCH  12  15
ENDBRANCH   7  12
ENDBRANCH   1   7
BRANCH   3  25
ATOM     25  C16 UNL     1       0.614   3.328   1.312  1.00  0.00     0.172 C   
BRANCH  25  26
ATOM     26  C17 UNL     1      -0.630   3.850   0.646  1.00  0.00     0.007 A   
ATOM     27  C18 UNL     1      -0.562   4.592  -0.544  1.00  0.00     0.011 A   
ATOM     28  C22 UNL     1      -1.889   3.576   1.198  1.00  0.00     0.130 A   
ATOM     29  C19 UNL     1      -1.735   5.052  -1.146  1.00  0.00     0.040 A   
ATOM     30  C21 UNL     1      -3.060   4.029   0.605  1.00  0.00     0.078 A   
ATOM     31  C20 UNL     1      -2.969   4.766  -0.567  1.00  0.00     0.126 A   
ATOM     32  F2  UNL     1      -1.970   2.844   2.320  1.00  0.00    -0.207 F   
ATOM     33  F1  UNL     1      -4.089   5.189  -1.166  1.00  0.00    -0.207 F   
ENDBRANCH  25  26
ENDBRANCH   3  25
TORSDOF 7
