REMARK SMILES c1ccc2c(c1)CC(n1cc([C@@H]([NH2+]Cc3ccc4c(c3)OCO4)C3CCCCC3)nn1)C2
REMARK SMILES IDX 12 1 11 2 9 3 10 4 31 5 30 6 8 8 1 9 2 10 6 11 3 12 5 13
REMARK SMILES IDX 4 14 7 15 32 16 13 17 14 20 15 21 16 22 20 23 17 24 19 25
REMARK SMILES IDX 18 26 21 27 23 28 22 29 24 30 25 31 29 32 26 33 28 34 27 35
REMARK H PARENT 10 7 13 18 13 19
ROOT
ATOM     1   C11 UNL     1       1.496   0.713   0.767  1.00  0.00     0.117 C   
ENDROOT
BRANCH   1   2
ATOM     2   C10 UNL     1       0.367   1.454   1.413  1.00  0.00     0.127 A   
ATOM     3   N1  UNL     1      -1.508   2.285   2.112  1.00  0.00    -0.208 N   
ATOM     4   C9  UNL     1      -0.997   1.276   1.342  1.00  0.00     0.046 A   
ATOM     5   N4  UNL     1      -0.515   3.066   2.585  1.00  0.00    -0.076 NA  
ATOM     6   N3  UNL     1       0.636   2.558   2.176  1.00  0.00    -0.132 NA  
ATOM     7   H8  UNL     1      -1.623   0.551   0.838  1.00  0.00     0.083 HD  
BRANCH   3   8
ATOM     8   C8  UNL     1      -2.897   2.627   2.401  1.00  0.00     0.108 C   
ATOM     9   C1  UNL     1      -5.622  -0.380   0.067  1.00  0.00     0.000 A   
ATOM     10  C2  UNL     1      -5.543   0.631  -0.904  1.00  0.00     0.000 A   
ATOM     11  C6  UNL     1      -5.051  -0.202   1.328  1.00  0.00     0.004 A   
ATOM     12  C3  UNL     1      -4.893   1.836  -0.627  1.00  0.00     0.004 A   
ATOM     13  C5  UNL     1      -4.396   0.990   1.589  1.00  0.00    -0.043 A   
ATOM     14  C4  UNL     1      -4.319   1.999   0.622  1.00  0.00    -0.043 A   
ATOM     15  C7  UNL     1      -3.732   1.413   2.866  1.00  0.00     0.061 C   
ATOM     16  C26 UNL     1      -3.604   3.204   1.156  1.00  0.00     0.061 C   
ENDBRANCH   3   8
ENDBRANCH   1   2
BRANCH   1  17
ATOM     17  N2  UNL     1       2.526   1.731   0.311  1.00  0.00     0.249 N   
ATOM     18  H10 UNL     1       2.678   2.354   1.117  1.00  0.00     0.199 HD  
ATOM     19  H11 UNL     1       3.423   1.291   0.101  1.00  0.00     0.199 HD  
BRANCH  17  20
ATOM     20  C12 UNL     1       2.140   2.590  -0.848  1.00  0.00     0.164 C   
BRANCH  20  21
ATOM     21  C13 UNL     1       2.137   1.833  -2.147  1.00  0.00    -0.002 A   
ATOM     22  C14 UNL     1       3.360   1.464  -2.758  1.00  0.00     0.012 A   
ATOM     23  C18 UNL     1       0.923   1.462  -2.750  1.00  0.00     0.045 A   
ATOM     24  C15 UNL     1       3.377   0.725  -3.947  1.00  0.00     0.037 A   
ATOM     25  C17 UNL     1       0.975   0.733  -3.921  1.00  0.00     0.109 A   
ATOM     26  C16 UNL     1       2.166   0.370  -4.500  1.00  0.00     0.108 A   
ATOM     27  O1  UNL     1      -0.100   0.295  -4.628  1.00  0.00    -0.316 OA  
ATOM     28  O2  UNL     1       1.992  -0.348  -5.641  1.00  0.00    -0.316 OA  
ATOM     29  C19 UNL     1       0.551  -0.390  -5.724  1.00  0.00     0.337 C   
ENDBRANCH  20  21
ENDBRANCH  17  20
ENDBRANCH   1  17
BRANCH   1  30
ATOM     30  C20 UNL     1       2.184  -0.304   1.728  1.00  0.00     0.043 C   
ATOM     31  C21 UNL     1       3.279  -1.125   1.006  1.00  0.00     0.010 C   
ATOM     32  C25 UNL     1       1.156  -1.274   2.359  1.00  0.00     0.010 C   
ATOM     33  C22 UNL     1       3.920  -2.172   1.914  1.00  0.00     0.001 C   
ATOM     34  C24 UNL     1       1.809  -2.319   3.260  1.00  0.00     0.001 C   
ATOM     35  C23 UNL     1       2.883  -3.105   2.523  1.00  0.00     0.000 C   
ENDBRANCH   1  30
TORSDOF 6
