REMARK SMILES c1cc(-c2n[nH]cc2Cn2cc([C@@H]([NH2+]Cc3ccc4c(c3)OCO4)C3CCCC3)nn2)co1
REMARK SMILES IDX 10 1 11 2 12 3 30 4 31 5 9 7 8 8 4 9 5 10 6 11 7 12 3 14
REMARK SMILES IDX 1 15 2 16 33 17 32 18 13 19 14 20 15 23 16 24 17 25 21 26
REMARK SMILES IDX 18 27 20 28 19 29 22 30 24 31 23 32 25 33 26 34 29 35 27 36
REMARK SMILES IDX 28 37
REMARK H PARENT 11 6 6 13 14 21 14 22
ROOT
ATOM     1   N3  UNL     1      -0.393   2.650   0.485  1.00  0.00    -0.208 N   
ATOM     2   C8  UNL     1      -0.986   1.439   0.245  1.00  0.00     0.046 A   
ATOM     3   C9  UNL     1      -0.086   0.522   0.744  1.00  0.00     0.127 A   
ATOM     4   N5  UNL     1       0.967   1.190   1.312  1.00  0.00    -0.132 NA  
ATOM     5   N6  UNL     1       0.757   2.487   1.169  1.00  0.00    -0.076 NA  
ATOM     6   H7  UNL     1      -1.923   1.345  -0.288  1.00  0.00     0.083 HD  
ENDROOT
BRANCH   1   7
ATOM     7   C7  UNL     1      -0.795   3.983   0.056  1.00  0.00     0.173 C   
BRANCH   7   8
ATOM     8   C6  UNL     1      -1.389   3.992  -1.311  1.00  0.00     0.015 A   
ATOM     9   C4  UNL     1      -0.849   3.575  -2.564  1.00  0.00     0.097 A   
ATOM     10  N1  UNL     1      -1.754   3.677  -3.545  1.00  0.00    -0.184 NA  
ATOM     11  N2  UNL     1      -2.812   4.261  -2.974  1.00  0.00    -0.245 N   
ATOM     12  C5  UNL     1      -2.660   4.439  -1.632  1.00  0.00     0.099 A   
ATOM     13  H3  UNL     1      -3.613   4.493  -3.558  1.00  0.00     0.175 HD  
BRANCH   9  14
ATOM     14  C3  UNL     1       0.483   3.026  -2.841  1.00  0.00     0.028 A   
ATOM     15  C1  UNL     1       2.142   1.983  -3.932  1.00  0.00     0.136 A   
ATOM     16  C2  UNL     1       0.825   2.358  -4.051  1.00  0.00     0.038 A   
ATOM     17  O3  UNL     1       2.635   2.373  -2.729  1.00  0.00    -0.325 OA  
ATOM     18  C24 UNL     1       1.635   3.043  -2.089  1.00  0.00     0.145 A   
ENDBRANCH   9  14
ENDBRANCH   7   8
ENDBRANCH   1   7
BRANCH   3  19
ATOM     19  C10 UNL     1      -0.041  -0.968   0.646  1.00  0.00     0.117 C   
BRANCH  19  20
ATOM     20  N4  UNL     1       1.380  -1.409   0.361  1.00  0.00     0.249 N   
ATOM     21  H9  UNL     1       1.482  -2.418   0.510  1.00  0.00     0.199 HD  
ATOM     22  H10 UNL     1       1.972  -0.934   1.058  1.00  0.00     0.199 HD  
BRANCH  20  23
ATOM     23  C11 UNL     1       1.923  -1.052  -0.986  1.00  0.00     0.164 C   
BRANCH  23  24
ATOM     24  C12 UNL     1       1.319  -1.876  -2.089  1.00  0.00    -0.002 A   
ATOM     25  C13 UNL     1       0.319  -1.326  -2.926  1.00  0.00     0.012 A   
ATOM     26  C17 UNL     1       1.725  -3.208  -2.281  1.00  0.00     0.045 A   
ATOM     27  C14 UNL     1      -0.268  -2.087  -3.942  1.00  0.00     0.037 A   
ATOM     28  C16 UNL     1       1.128  -3.930  -3.294  1.00  0.00     0.109 A   
ATOM     29  C15 UNL     1       0.160  -3.387  -4.101  1.00  0.00     0.108 A   
ATOM     30  O1  UNL     1       1.408  -5.221  -3.614  1.00  0.00    -0.316 OA  
ATOM     31  O2  UNL     1      -0.293  -4.266  -5.031  1.00  0.00    -0.316 OA  
ATOM     32  C18 UNL     1       0.529  -5.419  -4.745  1.00  0.00     0.337 C   
ENDBRANCH  23  24
ENDBRANCH  20  23
ENDBRANCH  19  20
BRANCH  19  33
ATOM     33  C19 UNL     1      -0.526  -1.716   1.903  1.00  0.00     0.043 C   
ATOM     34  C20 UNL     1       0.235  -1.446   3.203  1.00  0.00     0.010 C   
ATOM     35  C23 UNL     1      -1.997  -1.466   2.275  1.00  0.00     0.010 C   
ATOM     36  C21 UNL     1      -0.692  -2.034   4.256  1.00  0.00     0.001 C   
ATOM     37  C22 UNL     1      -2.080  -1.609   3.797  1.00  0.00     0.001 C   
ENDBRANCH  19  33
ENDBRANCH   3  19
TORSDOF 8
