REMARK SMILES Cc1csc([C@H](CO)n2cc([C@H](CC(C)C)[NH2+]Cc3ccc4c(c3)OCO4)nn2)c1
REMARK SMILES IDX 9 1 10 2 11 3 28 4 29 5 6 7 5 8 2 9 3 10 30 11 4 12 1 13
REMARK SMILES IDX 7 14 8 15 12 17 13 18 14 19 15 20 16 21 17 22 18 25 19 26
REMARK SMILES IDX 20 27 24 28 21 29 23 30 22 31 25 32 27 33 26 34
REMARK H PARENT 10 6 8 16 17 23 17 24
ROOT
ATOM     1   N1  UNL     1       0.259  -1.607  -2.606  1.00  0.00    -0.202 N   
ATOM     2   C7  UNL     1      -0.331  -0.369  -2.526  1.00  0.00     0.046 A   
ATOM     3   C8  UNL     1      -0.658  -0.232  -1.196  1.00  0.00     0.127 A   
ATOM     4   N3  UNL     1      -0.317  -1.385  -0.533  1.00  0.00    -0.132 NA  
ATOM     5   N4  UNL     1       0.225  -2.221  -1.403  1.00  0.00    -0.075 NA  
ATOM     6   H9  UNL     1      -0.413   0.289  -3.384  1.00  0.00     0.083 HD  
ENDROOT
BRANCH   1   7
ATOM     7   C5  UNL     1       0.941  -2.238  -3.733  1.00  0.00     0.162 C   
BRANCH   7   8
ATOM     8   C4  UNL     1       2.224  -1.493  -4.044  1.00  0.00     0.014 A   
ATOM     9   C2  UNL     1       3.787   0.113  -4.760  1.00  0.00    -0.044 A   
ATOM     10  C3  UNL     1       4.605  -0.862  -4.208  1.00  0.00     0.049 A   
ATOM     11  C22 UNL     1       2.410  -0.267  -4.667  1.00  0.00     0.017 A   
ATOM     12  S1  UNL     1       3.732  -2.186  -3.588  1.00  0.00    -0.100 S   
ATOM     13  C1  UNL     1       4.264   1.387  -5.374  1.00  0.00     0.045 C   
ENDBRANCH   7   8
BRANCH   7  14
ATOM     14  C6  UNL     1       0.037  -2.444  -4.964  1.00  0.00     0.186 C   
BRANCH  14  15
ATOM     15  O1  UNL     1      -0.491  -1.225  -5.494  1.00  0.00    -0.394 OA  
ATOM     16  H8  UNL     1      -0.821  -1.422  -6.393  1.00  0.00     0.210 HD  
ENDBRANCH  14  15
ENDBRANCH   7  14
ENDBRANCH   1   7
BRANCH   3  17
ATOM     17  C9  UNL     1      -1.258   0.911  -0.449  1.00  0.00     0.114 C   
BRANCH  17  18
ATOM     18  C10 UNL     1      -0.494   2.242  -0.627  1.00  0.00     0.064 C   
BRANCH  18  19
ATOM     19  C11 UNL     1       0.860   2.414   0.100  1.00  0.00    -0.012 C   
ATOM     20  C12 UNL     1       1.324   3.865  -0.045  1.00  0.00     0.007 C   
ATOM     21  C13 UNL     1       1.960   1.488  -0.419  1.00  0.00     0.007 C   
ENDBRANCH  18  19
ENDBRANCH  17  18
BRANCH  17  22
ATOM     22  N2  UNL     1      -1.390   0.625   1.021  1.00  0.00     0.249 N   
ATOM     23  H20 UNL     1      -0.530   0.140   1.311  1.00  0.00     0.199 HD  
ATOM     24  H21 UNL     1      -1.437   1.489   1.567  1.00  0.00     0.199 HD  
BRANCH  22  25
ATOM     25  C14 UNL     1      -2.533  -0.245   1.418  1.00  0.00     0.164 C   
BRANCH  25  26
ATOM     26  C15 UNL     1      -2.507  -0.464   2.906  1.00  0.00    -0.002 A   
ATOM     27  C16 UNL     1      -3.271   0.362   3.765  1.00  0.00     0.012 A   
ATOM     28  C20 UNL     1      -1.661  -1.441   3.457  1.00  0.00     0.045 A   
ATOM     29  C17 UNL     1      -3.200   0.209   5.156  1.00  0.00     0.037 A   
ATOM     30  C19 UNL     1      -1.605  -1.556   4.832  1.00  0.00     0.109 A   
ATOM     31  C18 UNL     1      -2.354  -0.754   5.658  1.00  0.00     0.108 A   
ATOM     32  O2  UNL     1      -0.830  -2.436   5.525  1.00  0.00    -0.316 OA  
ATOM     33  O3  UNL     1      -2.150  -1.034   6.975  1.00  0.00    -0.316 OA  
ATOM     34  C21 UNL     1      -1.168  -2.090   6.887  1.00  0.00     0.337 C   
ENDBRANCH  25  26
ENDBRANCH  22  25
ENDBRANCH  17  22
ENDBRANCH   3  17
TORSDOF 10
