REMARK SMILES Cc1csc([C@@H](CO)n2cc([C@H](CC(C)C)[NH2+]Cc3ccc4c(c3)OCO4)nn2)c1
REMARK SMILES IDX 9 1 10 2 11 3 28 4 29 5 6 7 5 8 2 9 3 10 30 11 4 12 1 13
REMARK SMILES IDX 7 14 8 15 12 17 13 18 14 19 15 20 16 21 17 22 18 25 19 26
REMARK SMILES IDX 20 27 24 28 21 29 23 30 22 31 25 32 27 33 26 34
REMARK H PARENT 10 6 8 16 17 23 17 24
ROOT
ATOM     1   N1  UNL     1      -1.575   2.052   1.746  1.00  0.00    -0.202 N   
ATOM     2   C7  UNL     1      -0.688   1.009   1.673  1.00  0.00     0.046 A   
ATOM     3   C8  UNL     1      -0.003   1.231   0.501  1.00  0.00     0.127 A   
ATOM     4   N3  UNL     1      -0.474   2.374  -0.089  1.00  0.00    -0.132 NA  
ATOM     5   N4  UNL     1      -1.433   2.867   0.678  1.00  0.00    -0.075 NA  
ATOM     6   H9  UNL     1      -0.645   0.240   2.431  1.00  0.00     0.083 HD  
ENDROOT
BRANCH   1   7
ATOM     7   C5  UNL     1      -2.606   2.321   2.746  1.00  0.00     0.162 C   
BRANCH   7   8
ATOM     8   C4  UNL     1      -3.518   1.117   2.905  1.00  0.00     0.014 A   
ATOM     9   C2  UNL     1      -4.583  -0.833   3.686  1.00  0.00    -0.044 A   
ATOM     10  C3  UNL     1      -5.305  -0.554   2.542  1.00  0.00     0.049 A   
ATOM     11  C22 UNL     1      -3.545   0.137   3.881  1.00  0.00     0.017 A   
ATOM     12  S1  UNL     1      -4.744   0.839   1.730  1.00  0.00    -0.100 S   
ATOM     13  C1  UNL     1      -4.849  -1.979   4.604  1.00  0.00     0.045 C   
ENDBRANCH   7   8
BRANCH   7  14
ATOM     14  C6  UNL     1      -2.002   2.848   4.060  1.00  0.00     0.186 C   
BRANCH  14  15
ATOM     15  O1  UNL     1      -1.069   1.942   4.653  1.00  0.00    -0.394 OA  
ATOM     16  H8  UNL     1      -0.785   2.341   5.499  1.00  0.00     0.210 HD  
ENDBRANCH  14  15
ENDBRANCH   7  14
ENDBRANCH   1   7
BRANCH   3  17
ATOM     17  C9  UNL     1       1.049   0.427  -0.186  1.00  0.00     0.114 C   
BRANCH  17  18
ATOM     18  C10 UNL     1       2.445   1.038   0.056  1.00  0.00     0.064 C   
BRANCH  18  19
ATOM     19  C11 UNL     1       3.643   0.290  -0.566  1.00  0.00    -0.012 C   
ATOM     20  C12 UNL     1       3.722  -1.169  -0.118  1.00  0.00     0.007 C   
ATOM     21  C13 UNL     1       4.944   1.014  -0.202  1.00  0.00     0.007 C   
ENDBRANCH  18  19
ENDBRANCH  17  18
BRANCH  17  22
ATOM     22  N2  UNL     1       0.779   0.372  -1.665  1.00  0.00     0.249 N   
ATOM     23  H20 UNL     1       0.685   1.345  -1.993  1.00  0.00     0.199 HD  
ATOM     24  H21 UNL     1       1.567  -0.035  -2.177  1.00  0.00     0.199 HD  
BRANCH  22  25
ATOM     25  C14 UNL     1      -0.464  -0.352  -2.058  1.00  0.00     0.164 C   
BRANCH  25  26
ATOM     26  C15 UNL     1      -0.563  -0.452  -3.555  1.00  0.00    -0.002 A   
ATOM     27  C16 UNL     1      -0.076  -1.597  -4.231  1.00  0.00     0.012 A   
ATOM     28  C20 UNL     1      -1.097   0.615  -4.295  1.00  0.00     0.045 A   
ATOM     29  C17 UNL     1      -0.133  -1.683  -5.626  1.00  0.00     0.037 A   
ATOM     30  C19 UNL     1      -1.137   0.498  -5.669  1.00  0.00     0.109 A   
ATOM     31  C18 UNL     1      -0.670  -0.619  -6.316  1.00  0.00     0.108 A   
ATOM     32  O2  UNL     1      -1.615   1.435  -6.530  1.00  0.00    -0.316 OA  
ATOM     33  O3  UNL     1      -0.804  -0.529  -7.665  1.00  0.00    -0.316 OA  
ATOM     34  C21 UNL     1      -1.429   0.766  -7.797  1.00  0.00     0.337 C   
ENDBRANCH  25  26
ENDBRANCH  22  25
ENDBRANCH  17  22
ENDBRANCH   3  17
TORSDOF 10
