REMARK SMILES COc1ccc(CCn2cc([C@@H]([NH2+]Cc3ccc4c(c3)OCO4)C(C)C)nn2)cc1O
REMARK SMILES IDX 9 1 10 2 11 3 27 4 28 5 8 7 7 8 6 9 3 10 4 11 30 12 5 13
REMARK SMILES IDX 29 14 2 15 1 16 31 17 12 19 13 20 14 23 15 24 16 25 20 26
REMARK SMILES IDX 17 27 19 28 18 29 21 30 23 31 22 32 24 33 25 34 26 35
REMARK H PARENT 10 6 31 18 13 21 13 22
ROOT
ATOM     1   N1  UNL     1       3.001   0.568   2.479  1.00  0.00    -0.212 N   
ATOM     2   C8  UNL     1       2.170  -0.401   1.986  1.00  0.00     0.045 A   
ATOM     3   C9  UNL     1       2.307  -0.286   0.619  1.00  0.00     0.127 A   
ATOM     4   N3  UNL     1       3.307   0.610   0.346  1.00  0.00    -0.132 NA  
ATOM     5   N4  UNL     1       3.718   1.133   1.491  1.00  0.00    -0.076 NA  
ATOM     6   H10 UNL     1       1.490  -0.956   2.619  1.00  0.00     0.083 HD  
ENDROOT
BRANCH   1   7
ATOM     7   C7  UNL     1       2.959   1.173   3.797  1.00  0.00     0.139 C   
BRANCH   7   8
ATOM     8   C6  UNL     1       2.096   2.446   3.836  1.00  0.00     0.057 C   
BRANCH   8   9
ATOM     9   C5  UNL     1       0.654   2.188   3.448  1.00  0.00    -0.044 A   
ATOM     10  C2  UNL     1      -1.950   1.433   2.683  1.00  0.00     0.104 A   
ATOM     11  C3  UNL     1      -1.603   1.481   4.032  1.00  0.00     0.036 A   
ATOM     12  C23 UNL     1      -0.986   1.771   1.728  1.00  0.00     0.102 A   
ATOM     13  C4  UNL     1      -0.301   1.839   4.411  1.00  0.00     0.006 A   
ATOM     14  C22 UNL     1       0.283   2.196   2.096  1.00  0.00     0.039 A   
BRANCH  10  15
ATOM     15  O1  UNL     1      -3.161   1.056   2.166  1.00  0.00    -0.347 OA  
ATOM     16  C1  UNL     1      -4.215   0.858   3.106  1.00  0.00     0.203 C   
ENDBRANCH  10  15
BRANCH  12  17
ATOM     17  O4  UNL     1      -1.269   1.634   0.391  1.00  0.00    -0.358 OA  
ATOM     18  H29 UNL     1      -2.252   1.566   0.380  1.00  0.00     0.218 HD  
ENDBRANCH  12  17
ENDBRANCH   8   9
ENDBRANCH   7   8
ENDBRANCH   1   7
BRANCH   3  19
ATOM     19  C10 UNL     1       1.488  -0.879  -0.482  1.00  0.00     0.117 C   
BRANCH  19  20
ATOM     20  N2  UNL     1       0.673   0.178  -1.193  1.00  0.00     0.249 N   
ATOM     21  H12 UNL     1       0.017  -0.261  -1.845  1.00  0.00     0.199 HD  
ATOM     22  H13 UNL     1       0.065   0.646  -0.496  1.00  0.00     0.199 HD  
BRANCH  20  23
ATOM     23  C11 UNL     1       1.404   1.272  -1.898  1.00  0.00     0.164 C   
BRANCH  23  24
ATOM     24  C12 UNL     1       0.478   2.015  -2.825  1.00  0.00    -0.002 A   
ATOM     25  C13 UNL     1      -0.245   3.141  -2.364  1.00  0.00     0.012 A   
ATOM     26  C17 UNL     1       0.288   1.565  -4.143  1.00  0.00     0.045 A   
ATOM     27  C14 UNL     1      -1.141   3.814  -3.201  1.00  0.00     0.037 A   
ATOM     28  C16 UNL     1      -0.602   2.251  -4.943  1.00  0.00     0.109 A   
ATOM     29  C15 UNL     1      -1.298   3.343  -4.485  1.00  0.00     0.108 A   
ATOM     30  O2  UNL     1      -0.901   1.948  -6.233  1.00  0.00    -0.316 OA  
ATOM     31  O3  UNL     1      -2.121   3.866  -5.430  1.00  0.00    -0.316 OA  
ATOM     32  C18 UNL     1      -1.840   3.000  -6.551  1.00  0.00     0.337 C   
ENDBRANCH  23  24
ENDBRANCH  20  23
ENDBRANCH  19  20
BRANCH  19  33
ATOM     33  C19 UNL     1       2.312  -1.741  -1.476  1.00  0.00     0.037 C   
ATOM     34  C20 UNL     1       1.460  -2.305  -2.621  1.00  0.00     0.014 C   
ATOM     35  C21 UNL     1       2.990  -2.915  -0.752  1.00  0.00     0.014 C   
ENDBRANCH  19  33
ENDBRANCH   3  19
TORSDOF 10
