REMARK SMILES Cc1nn(C)c(Cl)c1Cn1cc([C@H](CC(C)C)[NH2+]Cc2ccc3c(c2)OCO3)nn1
REMARK SMILES IDX 10 1 11 2 12 3 29 4 30 5 9 7 8 8 2 9 3 10 4 11 6 12 1 13
REMARK SMILES IDX 5 14 7 15 13 16 14 17 15 18 16 19 17 20 18 21 19 24 20 25
REMARK SMILES IDX 21 26 25 27 22 28 24 29 23 30 26 31 28 32 27 33
REMARK H PARENT 11 6 18 22 18 23
ROOT
ATOM     1   N3  UNL     1      -2.804   1.460   0.493  1.00  0.00    -0.208 N   
ATOM     2   C7  UNL     1      -2.160   0.255   0.408  1.00  0.00     0.046 A   
ATOM     3   C8  UNL     1      -1.628   0.074   1.665  1.00  0.00     0.127 A   
ATOM     4   N5  UNL     1      -1.996   1.124   2.467  1.00  0.00    -0.132 NA  
ATOM     5   N6  UNL     1      -2.705   1.970   1.737  1.00  0.00    -0.076 NA  
ATOM     6   H9  UNL     1      -2.103  -0.308  -0.515  1.00  0.00     0.083 HD  
ENDROOT
BRANCH   1   7
ATOM     7   C6  UNL     1      -3.436   2.219  -0.577  1.00  0.00     0.174 C   
BRANCH   7   8
ATOM     8   C5  UNL     1      -2.399   2.693  -1.534  1.00  0.00     0.029 A   
ATOM     9   C2  UNL     1      -1.468   3.759  -1.362  1.00  0.00     0.063 A   
ATOM     10  N1  UNL     1      -0.630   3.865  -2.402  1.00  0.00    -0.185 NA  
ATOM     11  N2  UNL     1      -1.052   2.927  -3.273  1.00  0.00    -0.217 N   
ATOM     12  C4  UNL     1      -2.086   2.192  -2.775  1.00  0.00     0.123 A   
ATOM     13  C1  UNL     1      -1.319   4.677  -0.202  1.00  0.00     0.069 C   
ATOM     14  C3  UNL     1      -0.393   2.797  -4.552  1.00  0.00     0.161 C   
ATOM     15  CL1 UNL     1      -2.746   0.895  -3.654  1.00  0.00    -0.065 Cl  
ENDBRANCH   7   8
ENDBRANCH   1   7
BRANCH   3  16
ATOM     16  C9  UNL     1      -0.715  -0.982   2.196  1.00  0.00     0.114 C   
BRANCH  16  17
ATOM     17  C10 UNL     1      -1.512  -2.073   2.939  1.00  0.00     0.064 C   
BRANCH  17  18
ATOM     18  C11 UNL     1      -0.699  -3.269   3.480  1.00  0.00    -0.012 C   
ATOM     19  C12 UNL     1      -1.646  -4.275   4.143  1.00  0.00     0.007 C   
ATOM     20  C13 UNL     1       0.116  -3.968   2.390  1.00  0.00     0.007 C   
ENDBRANCH  17  18
ENDBRANCH  16  17
BRANCH  16  21
ATOM     21  N4  UNL     1       0.301  -0.382   3.140  1.00  0.00     0.249 N   
ATOM     22  H20 UNL     1       0.849  -1.117   3.590  1.00  0.00     0.199 HD  
ATOM     23  H21 UNL     1      -0.235   0.101   3.873  1.00  0.00     0.199 HD  
BRANCH  21  24
ATOM     24  C14 UNL     1       1.246   0.620   2.553  1.00  0.00     0.164 C   
BRANCH  24  25
ATOM     25  C15 UNL     1       2.143   0.034   1.498  1.00  0.00    -0.002 A   
ATOM     26  C16 UNL     1       3.216  -0.814   1.860  1.00  0.00     0.012 A   
ATOM     27  C20 UNL     1       1.895   0.297   0.138  1.00  0.00     0.045 A   
ATOM     28  C17 UNL     1       4.031  -1.396   0.884  1.00  0.00     0.037 A   
ATOM     29  C19 UNL     1       2.714  -0.297  -0.799  1.00  0.00     0.109 A   
ATOM     30  C18 UNL     1       3.752  -1.119  -0.437  1.00  0.00     0.108 A   
ATOM     31  O1  UNL     1       2.603  -0.162  -2.147  1.00  0.00    -0.316 OA  
ATOM     32  O2  UNL     1       4.432  -1.599  -1.510  1.00  0.00    -0.316 OA  
ATOM     33  C21 UNL     1       3.732  -0.949  -2.594  1.00  0.00     0.337 C   
ENDBRANCH  24  25
ENDBRANCH  21  24
ENDBRANCH  16  21
ENDBRANCH   3  16
TORSDOF 8
