REMARK SMILES CN(C)c1cccc(Cn2cc([C@@H]([NH2+]Cc3ccc4c(c3)OCO4)C(C)(C)C)nn2)c1
REMARK SMILES IDX 10 1 11 2 12 3 29 4 30 5 9 7 8 8 4 9 5 10 31 11 6 12 7 13
REMARK SMILES IDX 2 14 1 15 3 16 13 17 14 18 15 21 16 22 17 23 21 24 18 25
REMARK SMILES IDX 20 26 19 27 22 28 24 29 23 30 25 31 26 32 27 33 28 34
REMARK H PARENT 11 6 14 19 14 20
ROOT
ATOM     1   N2  UNL     1       0.226   0.387   3.307  1.00  0.00    -0.208 N   
ATOM     2   C9  UNL     1      -0.687   0.474   2.293  1.00  0.00     0.046 A   
ATOM     3   C10 UNL     1      -0.881  -0.833   1.907  1.00  0.00     0.127 A   
ATOM     4   N4  UNL     1      -0.150  -1.656   2.723  1.00  0.00    -0.132 NA  
ATOM     5   N5  UNL     1       0.516  -0.901   3.580  1.00  0.00    -0.076 NA  
ATOM     6   H12 UNL     1      -1.023   1.423   1.900  1.00  0.00     0.083 HD  
ENDROOT
BRANCH   1   7
ATOM     7   C8  UNL     1       0.995   1.467   3.909  1.00  0.00     0.169 C   
BRANCH   7   8
ATOM     8   C7  UNL     1       1.875   2.123   2.869  1.00  0.00    -0.027 A   
ATOM     9   C3  UNL     1       3.643   1.899   1.157  1.00  0.00     0.028 A   
ATOM     10  C4  UNL     1       3.420   3.244   0.830  1.00  0.00     0.023 A   
ATOM     11  C24 UNL     1       2.853   1.367   2.191  1.00  0.00     0.029 A   
ATOM     12  C5  UNL     1       2.475   4.022   1.512  1.00  0.00     0.002 A   
ATOM     13  C6  UNL     1       1.704   3.466   2.527  1.00  0.00     0.005 A   
BRANCH   9  14
ATOM     14  N1  UNL     1       4.554   1.072   0.473  1.00  0.00    -0.337 N   
ATOM     15  C1  UNL     1       5.460   0.319   1.356  1.00  0.00     0.129 C   
ATOM     16  C2  UNL     1       5.213   1.616  -0.717  1.00  0.00     0.129 C   
ENDBRANCH   9  14
ENDBRANCH   7   8
ENDBRANCH   1   7
BRANCH   3  17
ATOM     17  C11 UNL     1      -1.593  -1.401   0.721  1.00  0.00     0.120 C   
BRANCH  17  18
ATOM     18  N3  UNL     1      -0.689  -2.412   0.037  1.00  0.00     0.250 N   
ATOM     19  H14 UNL     1      -1.194  -2.918  -0.692  1.00  0.00     0.199 HD  
ATOM     20  H15 UNL     1      -0.422  -3.095   0.759  1.00  0.00     0.199 HD  
BRANCH  18  21
ATOM     21  C12 UNL     1       0.588  -1.882  -0.540  1.00  0.00     0.164 C   
BRANCH  21  22
ATOM     22  C13 UNL     1       0.384  -0.824  -1.589  1.00  0.00    -0.002 A   
ATOM     23  C14 UNL     1       0.864   0.490  -1.368  1.00  0.00     0.012 A   
ATOM     24  C18 UNL     1      -0.286  -1.119  -2.789  1.00  0.00     0.045 A   
ATOM     25  C15 UNL     1       0.671   1.500  -2.317  1.00  0.00     0.037 A   
ATOM     26  C17 UNL     1      -0.461  -0.100  -3.704  1.00  0.00     0.109 A   
ATOM     27  C16 UNL     1       0.005   1.172  -3.475  1.00  0.00     0.108 A   
ATOM     28  O1  UNL     1      -1.088  -0.216  -4.903  1.00  0.00    -0.316 OA  
ATOM     29  O2  UNL     1      -0.267   2.016  -4.503  1.00  0.00    -0.316 OA  
ATOM     30  C19 UNL     1      -0.935   1.125  -5.422  1.00  0.00     0.337 C   
ENDBRANCH  21  22
ENDBRANCH  18  21
ENDBRANCH  17  18
BRANCH  17  31
ATOM     31  C20 UNL     1      -2.987  -2.044   1.050  1.00  0.00     0.010 C   
ATOM     32  C21 UNL     1      -3.710  -2.452  -0.256  1.00  0.00     0.017 C   
ATOM     33  C22 UNL     1      -3.889  -1.007   1.758  1.00  0.00     0.017 C   
ATOM     34  C23 UNL     1      -2.880  -3.292   1.947  1.00  0.00     0.017 C   
ENDBRANCH  17  31
ENDBRANCH   3  17
TORSDOF 8
