REMARK SMILES c1cc2c(cc1C[NH2+][C@H](c1cn(Cc3cc4c([nH]3)CCCC4)nn1)C1CCCCC1)OCO2
REMARK SMILES IDX 10 1 11 2 12 3 23 4 24 5 9 7 8 8 7 11 6 12 1 13 2 14 3 15
REMARK SMILES IDX 5 16 4 17 33 18 31 19 32 20 25 21 26 22 30 23 27 24 29 25
REMARK SMILES IDX 28 26 13 27 14 28 15 29 18 30 16 31 17 32 22 33 19 34 21 35
REMARK SMILES IDX 20 36
REMARK H PARENT 11 6 8 9 8 10 18 37
ROOT
ATOM     1   C9  UNL     1       1.253  -1.619  -0.167  1.00  0.00     0.127 A   
ATOM     2   C10 UNL     1       0.200  -2.268   0.438  1.00  0.00     0.046 A   
ATOM     3   N2  UNL     1       0.727  -2.730   1.613  1.00  0.00    -0.206 N   
ATOM     4   N4  UNL     1       2.028  -2.392   1.722  1.00  0.00    -0.076 NA  
ATOM     5   N5  UNL     1       2.361  -1.712   0.638  1.00  0.00    -0.132 NA  
ATOM     6   H9  UNL     1      -0.841  -2.406   0.179  1.00  0.00     0.083 HD  
ENDROOT
BRANCH   1   7
ATOM     7   C8  UNL     1       1.319  -0.802  -1.420  1.00  0.00     0.117 C   
BRANCH   7   8
ATOM     8   N1  UNL     1       2.242   0.365  -1.146  1.00  0.00     0.249 N   
ATOM     9   H6  UNL     1       1.925   0.775  -0.258  1.00  0.00     0.199 HD  
ATOM     10  H7  UNL     1       3.167  -0.019  -0.912  1.00  0.00     0.199 HD  
BRANCH   8  11
ATOM     11  C7  UNL     1       2.357   1.452  -2.147  1.00  0.00     0.164 C   
BRANCH  11  12
ATOM     12  C6  UNL     1       1.060   2.172  -2.389  1.00  0.00    -0.002 A   
ATOM     13  C1  UNL     1       0.369   2.014  -3.614  1.00  0.00     0.012 A   
ATOM     14  C2  UNL     1      -0.848   2.665  -3.844  1.00  0.00     0.037 A   
ATOM     15  C3  UNL     1      -1.352   3.461  -2.840  1.00  0.00     0.108 A   
ATOM     16  C5  UNL     1       0.513   2.997  -1.391  1.00  0.00     0.045 A   
ATOM     17  C4  UNL     1      -0.691   3.618  -1.647  1.00  0.00     0.109 A   
ATOM     18  O2  UNL     1      -2.512   4.166  -2.887  1.00  0.00    -0.316 OA  
ATOM     19  O1  UNL     1      -1.356   4.433  -0.787  1.00  0.00    -0.316 OA  
ATOM     20  C26 UNL     1      -2.497   4.809  -1.593  1.00  0.00     0.337 C   
ENDBRANCH  11  12
ENDBRANCH   8  11
ENDBRANCH   7   8
BRANCH   7  21
ATOM     21  C20 UNL     1       1.772  -1.593  -2.674  1.00  0.00     0.043 C   
ATOM     22  C21 UNL     1       3.199  -2.170  -2.588  1.00  0.00     0.010 C   
ATOM     23  C25 UNL     1       0.770  -2.712  -3.030  1.00  0.00     0.010 C   
ATOM     24  C22 UNL     1       3.588  -2.901  -3.873  1.00  0.00     0.001 C   
ATOM     25  C24 UNL     1       1.165  -3.434  -4.316  1.00  0.00     0.001 C   
ATOM     26  C23 UNL     1       2.583  -3.988  -4.235  1.00  0.00     0.000 C   
ENDBRANCH   7  21
ENDBRANCH   1   7
BRANCH   3  27
ATOM     27  C11 UNL     1       0.037  -3.406   2.700  1.00  0.00     0.185 C   
BRANCH  27  28
ATOM     28  C12 UNL     1      -0.665  -2.404   3.553  1.00  0.00     0.027 A   
ATOM     29  C13 UNL     1      -2.007  -2.070   3.635  1.00  0.00     0.026 A   
ATOM     30  N3  UNL     1       0.022  -1.608   4.445  1.00  0.00    -0.320 N   
ATOM     31  C14 UNL     1      -2.126  -1.026   4.580  1.00  0.00    -0.029 A   
ATOM     32  C15 UNL     1      -0.860  -0.766   5.060  1.00  0.00     0.010 A   
ATOM     33  C19 UNL     1      -3.334  -0.298   5.066  1.00  0.00     0.037 C   
ATOM     34  C16 UNL     1      -0.497   0.267   6.069  1.00  0.00     0.051 C   
ATOM     35  C18 UNL     1      -2.939   0.989   5.818  1.00  0.00     0.005 C   
ATOM     36  C17 UNL     1      -1.768   0.755   6.792  1.00  0.00     0.006 C   
ATOM     37  H13 UNL     1       1.023  -1.631   4.608  1.00  0.00     0.152 HD  
ENDBRANCH  27  28
ENDBRANCH   3  27
TORSDOF 7
