REMARK SMILES COc1cc(F)cc(F)c1Cn1cc([C@@H]([NH2+]Cc2ccc3c(c2)OCO3)C(C)C)nn1
REMARK SMILES IDX 12 1 13 2 14 3 30 4 31 5 11 7 10 8 3 9 4 10 5 11 8 12 7 13
REMARK SMILES IDX 6 14 9 15 2 16 1 17 15 18 16 19 17 22 18 23 19 24 23 25
REMARK SMILES IDX 20 26 22 27 21 28 24 29 26 30 25 31 27 32 28 33 29 34
REMARK H PARENT 13 6 16 20 16 21
ROOT
ATOM     1   N1  UNL     1      -1.516   1.776  -0.244  1.00  0.00    -0.208 N   
ATOM     2   C9  UNL     1      -1.474   0.810   0.726  1.00  0.00     0.046 A   
ATOM     3   C10 UNL     1      -0.147   0.761   1.092  1.00  0.00     0.127 A   
ATOM     4   N3  UNL     1       0.557   1.674   0.349  1.00  0.00    -0.132 NA  
ATOM     5   N4  UNL     1      -0.288   2.285  -0.463  1.00  0.00    -0.076 NA  
ATOM     6   H8  UNL     1      -2.357   0.272   1.042  1.00  0.00     0.083 HD  
ENDROOT
BRANCH   1   7
ATOM     7   C8  UNL     1      -2.671   2.273  -0.973  1.00  0.00     0.175 C   
BRANCH   7   8
ATOM     8   C7  UNL     1      -2.945   1.434  -2.194  1.00  0.00     0.038 A   
ATOM     9   C2  UNL     1      -3.767   0.293  -2.146  1.00  0.00     0.085 A   
ATOM     10  C3  UNL     1      -3.969  -0.461  -3.306  1.00  0.00     0.073 A   
ATOM     11  C4  UNL     1      -3.361  -0.075  -4.499  1.00  0.00     0.128 A   
ATOM     12  C6  UNL     1      -2.350   1.788  -3.412  1.00  0.00     0.133 A   
ATOM     13  C5  UNL     1      -2.552   1.046  -4.566  1.00  0.00     0.079 A   
ATOM     14  F1  UNL     1      -3.559  -0.811  -5.600  1.00  0.00    -0.207 F   
ATOM     15  F2  UNL     1      -1.562   2.870  -3.475  1.00  0.00    -0.206 F   
BRANCH   9  16
ATOM     16  O1  UNL     1      -4.302  -0.011  -0.921  1.00  0.00    -0.349 OA  
ATOM     17  C1  UNL     1      -5.360  -0.967  -0.900  1.00  0.00     0.203 C   
ENDBRANCH   9  16
ENDBRANCH   7   8
ENDBRANCH   1   7
BRANCH   3  18
ATOM     18  C11 UNL     1       0.587  -0.113   2.057  1.00  0.00     0.117 C   
BRANCH  18  19
ATOM     19  N2  UNL     1       2.011  -0.300   1.591  1.00  0.00     0.249 N   
ATOM     20  H10 UNL     1       2.349   0.630   1.298  1.00  0.00     0.199 HD  
ATOM     21  H11 UNL     1       2.625  -0.605   2.352  1.00  0.00     0.199 HD  
BRANCH  19  22
ATOM     22  C12 UNL     1       2.185  -1.209   0.424  1.00  0.00     0.164 C   
BRANCH  22  23
ATOM     23  C13 UNL     1       3.619  -1.222  -0.022  1.00  0.00    -0.002 A   
ATOM     24  C14 UNL     1       4.086  -0.242  -0.931  1.00  0.00     0.012 A   
ATOM     25  C18 UNL     1       4.516  -2.170   0.497  1.00  0.00     0.045 A   
ATOM     26  C15 UNL     1       5.427  -0.212  -1.329  1.00  0.00     0.037 A   
ATOM     27  C17 UNL     1       5.832  -2.112   0.084  1.00  0.00     0.109 A   
ATOM     28  C16 UNL     1       6.275  -1.162  -0.803  1.00  0.00     0.108 A   
ATOM     29  O2  UNL     1       6.822  -2.951   0.484  1.00  0.00    -0.316 OA  
ATOM     30  O3  UNL     1       7.600  -1.283  -1.073  1.00  0.00    -0.316 OA  
ATOM     31  C19 UNL     1       7.941  -2.435  -0.274  1.00  0.00     0.337 C   
ENDBRANCH  22  23
ENDBRANCH  19  22
ENDBRANCH  18  19
BRANCH  18  32
ATOM     32  C20 UNL     1       0.617   0.425   3.510  1.00  0.00     0.037 C   
ATOM     33  C21 UNL     1       1.267   1.805   3.656  1.00  0.00     0.014 C   
ATOM     34  C22 UNL     1      -0.783   0.443   4.137  1.00  0.00     0.014 C   
ENDBRANCH  18  32
ENDBRANCH   3  18
TORSDOF 8
