REMARK SMILES CC(C)C[C@H]([NH2+]Cc1ccc2c(c1)OCO2)c1cn(CCc2cc3c([nH]2)CCCC3)nn1
REMARK SMILES IDX 17 1 18 2 19 3 31 4 32 5 5 7 4 8 2 9 1 10 3 11 6 12 7 15
REMARK SMILES IDX 8 16 9 17 13 18 10 19 12 20 11 21 14 22 16 23 15 24 20 25
REMARK SMILES IDX 21 26 22 27 23 28 26 29 24 30 25 31 30 32 27 33 29 34 28 35
REMARK H PARENT 18 6 6 13 6 14 26 36
ROOT
ATOM     1   C14 UNL     1       0.128   1.119  -1.195  1.00  0.00     0.127 A   
ATOM     2   C15 UNL     1      -1.032   1.859  -1.170  1.00  0.00     0.045 A   
ATOM     3   N2  UNL     1      -1.804   1.288  -2.143  1.00  0.00    -0.212 N   
ATOM     4   N4  UNL     1      -1.146   0.288  -2.758  1.00  0.00    -0.076 NA  
ATOM     5   N5  UNL     1       0.037   0.169  -2.179  1.00  0.00    -0.132 NA  
ATOM     6   H20 UNL     1      -1.391   2.662  -0.541  1.00  0.00     0.083 HD  
ENDROOT
BRANCH   1   7
ATOM     7   C5  UNL     1       1.313   1.126  -0.293  1.00  0.00     0.114 C   
BRANCH   7   8
ATOM     8   C4  UNL     1       2.578   1.686  -0.969  1.00  0.00     0.064 C   
BRANCH   8   9
ATOM     9   C2  UNL     1       2.488   3.169  -1.390  1.00  0.00    -0.012 C   
ATOM     10  C1  UNL     1       3.780   3.579  -2.103  1.00  0.00     0.007 C   
ATOM     11  C3  UNL     1       2.238   4.099  -0.203  1.00  0.00     0.007 C   
ENDBRANCH   8   9
ENDBRANCH   7   8
BRANCH   7  12
ATOM     12  N1  UNL     1       1.621  -0.293   0.124  1.00  0.00     0.249 N   
ATOM     13  H11 UNL     1       2.557  -0.370   0.533  1.00  0.00     0.199 HD  
ATOM     14  H12 UNL     1       1.631  -0.856  -0.741  1.00  0.00     0.199 HD  
BRANCH  12  15
ATOM     15  C6  UNL     1       0.627  -0.907   1.048  1.00  0.00     0.164 C   
BRANCH  15  16
ATOM     16  C7  UNL     1       0.984  -2.339   1.330  1.00  0.00    -0.002 A   
ATOM     17  C8  UNL     1       1.696  -2.687   2.501  1.00  0.00     0.012 A   
ATOM     18  C12 UNL     1       0.648  -3.339   0.400  1.00  0.00     0.045 A   
ATOM     19  C9  UNL     1       2.063  -4.015   2.749  1.00  0.00     0.037 A   
ATOM     20  C11 UNL     1       1.029  -4.637   0.674  1.00  0.00     0.109 A   
ATOM     21  C10 UNL     1       1.716  -4.966   1.815  1.00  0.00     0.108 A   
ATOM     22  O1  UNL     1       0.791  -5.715  -0.117  1.00  0.00    -0.316 OA  
ATOM     23  O2  UNL     1       1.994  -6.293   1.890  1.00  0.00    -0.316 OA  
ATOM     24  C13 UNL     1       1.394  -6.770   0.667  1.00  0.00     0.337 C   
ENDBRANCH  15  16
ENDBRANCH  12  15
ENDBRANCH   7  12
ENDBRANCH   1   7
BRANCH   3  25
ATOM     25  C16 UNL     1      -3.183   1.579  -2.469  1.00  0.00     0.140 C   
BRANCH  25  26
ATOM     26  C17 UNL     1      -4.159   0.537  -1.919  1.00  0.00     0.072 C   
BRANCH  26  27
ATOM     27  C18 UNL     1      -4.104   0.427  -0.424  1.00  0.00     0.009 A   
ATOM     28  C19 UNL     1      -3.458  -0.503   0.373  1.00  0.00     0.024 A   
ATOM     29  N3  UNL     1      -4.768   1.303   0.405  1.00  0.00    -0.321 N   
ATOM     30  C20 UNL     1      -3.695  -0.148   1.719  1.00  0.00    -0.029 A   
ATOM     31  C21 UNL     1      -4.500   0.971   1.703  1.00  0.00     0.010 A   
ATOM     32  C25 UNL     1      -3.275  -0.816   2.984  1.00  0.00     0.037 C   
ATOM     33  C22 UNL     1      -5.025   1.694   2.895  1.00  0.00     0.051 C   
ATOM     34  C24 UNL     1      -3.491   0.113   4.196  1.00  0.00     0.005 C   
ATOM     35  C23 UNL     1      -4.862   0.815   4.150  1.00  0.00     0.006 C   
ATOM     36  H26 UNL     1      -5.375   2.058   0.109  1.00  0.00     0.152 HD  
ENDBRANCH  26  27
ENDBRANCH  25  26
ENDBRANCH   3  25
TORSDOF 9
