REMARK SMILES Cc1ccc(CCn2cc([C@@H]([NH2+]Cc3ccc4c(c3)OCO4)C3CCCCC3)nn2)cn1
REMARK SMILES IDX 8 1 9 2 10 3 29 4 30 5 7 7 6 8 5 9 2 10 3 11 32 12 4 13
REMARK SMILES IDX 31 14 1 15 11 16 12 17 13 20 14 21 15 22 19 23 16 24 18 25
REMARK SMILES IDX 17 26 20 27 22 28 21 29 23 30 24 31 28 32 25 33 27 34 26 35
REMARK H PARENT 9 6 12 18 12 19
ROOT
ATOM     1   N1  UNL     1      -1.174   2.607   1.468  1.00  0.00    -0.212 N   
ATOM     2   C8  UNL     1      -0.380   1.561   1.850  1.00  0.00     0.045 A   
ATOM     3   C9  UNL     1       0.542   1.456   0.832  1.00  0.00     0.127 A   
ATOM     4   N3  UNL     1       0.304   2.438  -0.094  1.00  0.00    -0.132 NA  
ATOM     5   N4  UNL     1      -0.748   3.135   0.307  1.00  0.00    -0.076 NA  
ATOM     6   H10 UNL     1      -0.573   0.981   2.742  1.00  0.00     0.083 HD  
ENDROOT
BRANCH   1   7
ATOM     7   C7  UNL     1      -2.426   3.030   2.063  1.00  0.00     0.139 C   
BRANCH   7   8
ATOM     8   C6  UNL     1      -3.657   2.609   1.246  1.00  0.00     0.058 C   
BRANCH   8   9
ATOM     9   C5  UNL     1      -3.698   1.126   0.978  1.00  0.00    -0.028 A   
ATOM     10  C2  UNL     1      -3.543  -1.576   0.453  1.00  0.00     0.037 A   
ATOM     11  C3  UNL     1      -4.147  -1.147   1.632  1.00  0.00     0.024 A   
ATOM     12  N5  UNL     1      -3.014  -0.715  -0.449  1.00  0.00    -0.261 NA  
ATOM     13  C4  UNL     1      -4.209   0.219   1.903  1.00  0.00     0.007 A   
ATOM     14  C25 UNL     1      -3.147   0.606  -0.189  1.00  0.00     0.115 A   
ATOM     15  C1  UNL     1      -3.478  -3.039   0.130  1.00  0.00     0.067 C   
ENDBRANCH   8   9
ENDBRANCH   7   8
ENDBRANCH   1   7
BRANCH   3  16
ATOM     16  C10 UNL     1       1.610   0.436   0.590  1.00  0.00     0.117 C   
BRANCH  16  17
ATOM     17  N2  UNL     1       1.477  -0.140  -0.799  1.00  0.00     0.249 N   
ATOM     18  H12 UNL     1       1.640   0.618  -1.475  1.00  0.00     0.199 HD  
ATOM     19  H13 UNL     1       2.192  -0.852  -0.968  1.00  0.00     0.199 HD  
BRANCH  17  20
ATOM     20  C11 UNL     1       0.150  -0.750  -1.132  1.00  0.00     0.164 C   
BRANCH  20  21
ATOM     21  C12 UNL     1       0.272  -1.619  -2.353  1.00  0.00    -0.002 A   
ATOM     22  C13 UNL     1       0.147  -1.057  -3.646  1.00  0.00     0.012 A   
ATOM     23  C17 UNL     1       0.566  -2.986  -2.216  1.00  0.00     0.045 A   
ATOM     24  C14 UNL     1       0.305  -1.847  -4.790  1.00  0.00     0.037 A   
ATOM     25  C16 UNL     1       0.714  -3.736  -3.364  1.00  0.00     0.109 A   
ATOM     26  C15 UNL     1       0.589  -3.183  -4.615  1.00  0.00     0.108 A   
ATOM     27  O1  UNL     1       0.997  -5.065  -3.408  1.00  0.00    -0.316 OA  
ATOM     28  O2  UNL     1       0.775  -4.095  -5.605  1.00  0.00    -0.316 OA  
ATOM     29  C18 UNL     1       1.009  -5.294  -4.836  1.00  0.00     0.337 C   
ENDBRANCH  20  21
ENDBRANCH  17  20
ENDBRANCH  16  17
BRANCH  16  30
ATOM     30  C19 UNL     1       3.043   1.024   0.767  1.00  0.00     0.043 C   
ATOM     31  C20 UNL     1       3.232   1.599   2.189  1.00  0.00     0.010 C   
ATOM     32  C24 UNL     1       4.150  -0.014   0.479  1.00  0.00     0.010 C   
ATOM     33  C21 UNL     1       4.638   2.147   2.420  1.00  0.00     0.001 C   
ATOM     34  C23 UNL     1       5.552   0.536   0.728  1.00  0.00     0.001 C   
ATOM     35  C22 UNL     1       5.702   1.097   2.134  1.00  0.00     0.000 C   
ENDBRANCH  16  30
ENDBRANCH   3  16
TORSDOF 8
