REMARK SMILES Cc1cccc([C@H](CO)n2cc([C@@H]([NH2+]Cc3ccc4c(c3)OCO4)C(C)(C)C)nn2)c1F
REMARK SMILES IDX 10 1 11 2 12 3 29 4 30 5 7 7 6 8 2 9 3 10 31 11 4 12 5 13
REMARK SMILES IDX 1 14 32 15 8 16 9 17 13 19 14 20 15 23 16 24 17 25 21 26
REMARK SMILES IDX 18 27 20 28 19 29 22 30 24 31 23 32 25 33 26 34 27 35 28 36
REMARK H PARENT 11 6 9 18 14 21 14 22
ROOT
ATOM     1   N1  UNL     1      -1.984  -0.083  -0.973  1.00  0.00    -0.202 N   
ATOM     2   C9  UNL     1      -0.870  -0.133  -0.178  1.00  0.00     0.046 A   
ATOM     3   C10 UNL     1       0.164   0.177  -1.031  1.00  0.00     0.127 A   
ATOM     4   N3  UNL     1      -0.340   0.425  -2.281  1.00  0.00    -0.132 NA  
ATOM     5   N4  UNL     1      -1.653   0.271  -2.233  1.00  0.00    -0.075 NA  
ATOM     6   H11 UNL     1      -0.913  -0.435   0.859  1.00  0.00     0.083 HD  
ENDROOT
BRANCH   1   7
ATOM     7   C7  UNL     1      -3.361  -0.466  -0.652  1.00  0.00     0.158 C   
BRANCH   7   8
ATOM     8   C6  UNL     1      -3.828   0.218   0.624  1.00  0.00     0.013 A   
ATOM     9   C2  UNL     1      -4.435   0.227   2.998  1.00  0.00    -0.015 A   
ATOM     10  C3  UNL     1      -4.697   1.598   2.927  1.00  0.00     0.006 A   
ATOM     11  C24 UNL     1      -4.014  -0.445   1.843  1.00  0.00     0.131 A   
ATOM     12  C4  UNL     1      -4.518   2.283   1.728  1.00  0.00     0.001 A   
ATOM     13  C5  UNL     1      -4.087   1.603   0.589  1.00  0.00     0.009 A   
ATOM     14  C1  UNL     1      -4.655  -0.529   4.275  1.00  0.00     0.047 C   
ATOM     15  F1  UNL     1      -3.783  -1.762   1.931  1.00  0.00    -0.206 F   
ENDBRANCH   7   8
BRANCH   7  16
ATOM     16  C8  UNL     1      -3.521  -1.996  -0.778  1.00  0.00     0.186 C   
BRANCH  16  17
ATOM     17  O1  UNL     1      -2.556  -2.736  -0.024  1.00  0.00    -0.394 OA  
ATOM     18  H10 UNL     1      -2.928  -2.843   0.875  1.00  0.00     0.210 HD  
ENDBRANCH  16  17
ENDBRANCH   7  16
ENDBRANCH   1   7
BRANCH   3  19
ATOM     19  C11 UNL     1       1.643   0.132  -0.816  1.00  0.00     0.120 C   
BRANCH  19  20
ATOM     20  N2  UNL     1       2.280  -0.638  -1.958  1.00  0.00     0.250 N   
ATOM     21  H13 UNL     1       3.297  -0.556  -1.933  1.00  0.00     0.199 HD  
ATOM     22  H14 UNL     1       1.953  -0.190  -2.825  1.00  0.00     0.199 HD  
BRANCH  20  23
ATOM     23  C12 UNL     1       1.919  -2.088  -2.061  1.00  0.00     0.164 C   
BRANCH  23  24
ATOM     24  C13 UNL     1       2.389  -2.896  -0.883  1.00  0.00    -0.002 A   
ATOM     25  C14 UNL     1       3.764  -3.183  -0.713  1.00  0.00     0.012 A   
ATOM     26  C18 UNL     1       1.464  -3.340   0.078  1.00  0.00     0.045 A   
ATOM     27  C15 UNL     1       4.215  -3.894   0.405  1.00  0.00     0.037 A   
ATOM     28  C17 UNL     1       1.942  -4.035   1.169  1.00  0.00     0.109 A   
ATOM     29  C16 UNL     1       3.279  -4.303   1.328  1.00  0.00     0.108 A   
ATOM     30  O2  UNL     1       1.191  -4.518   2.192  1.00  0.00    -0.316 OA  
ATOM     31  O3  UNL     1       3.537  -4.994   2.469  1.00  0.00    -0.316 OA  
ATOM     32  C19 UNL     1       2.204  -5.160   2.998  1.00  0.00     0.337 C   
ENDBRANCH  23  24
ENDBRANCH  20  23
ENDBRANCH  19  20
BRANCH  19  33
ATOM     33  C20 UNL     1       2.318   1.539  -0.655  1.00  0.00     0.010 C   
ATOM     34  C21 UNL     1       3.807   1.375  -0.269  1.00  0.00     0.017 C   
ATOM     35  C22 UNL     1       2.247   2.396  -1.935  1.00  0.00     0.017 C   
ATOM     36  C23 UNL     1       1.637   2.321   0.491  1.00  0.00     0.017 C   
ENDBRANCH  19  33
ENDBRANCH   3  19
TORSDOF 9
