REMARK SMILES Cc1cccc([C@@H](CO)n2cc([C@@H]([NH2+]Cc3ccc4c(c3)OCO4)C(C)(C)C)nn2)c1F
REMARK SMILES IDX 10 1 11 2 12 3 29 4 30 5 7 7 6 8 2 9 3 10 31 11 4 12 5 13
REMARK SMILES IDX 1 14 32 15 8 16 9 17 13 19 14 20 15 23 16 24 17 25 21 26
REMARK SMILES IDX 18 27 20 28 19 29 22 30 24 31 23 32 25 33 26 34 27 35 28 36
REMARK H PARENT 11 6 9 18 14 21 14 22
ROOT
ATOM     1   N1  UNL     1       1.058   1.331  -1.067  1.00  0.00    -0.202 N   
ATOM     2   C9  UNL     1      -0.246   1.561  -1.424  1.00  0.00     0.046 A   
ATOM     3   C10 UNL     1      -0.961   0.632  -0.703  1.00  0.00     0.127 A   
ATOM     4   N3  UNL     1      -0.089  -0.142   0.021  1.00  0.00    -0.132 NA  
ATOM     5   N4  UNL     1       1.141   0.282  -0.219  1.00  0.00    -0.075 NA  
ATOM     6   H11 UNL     1      -0.524   2.345  -2.116  1.00  0.00     0.083 HD  
ENDROOT
BRANCH   1   7
ATOM     7   C7  UNL     1       2.247   2.067  -1.500  1.00  0.00     0.158 C   
BRANCH   7   8
ATOM     8   C6  UNL     1       2.893   2.758  -0.314  1.00  0.00     0.013 A   
ATOM     9   C2  UNL     1       2.835   4.630   1.271  1.00  0.00    -0.015 A   
ATOM     10  C3  UNL     1       3.984   4.130   1.890  1.00  0.00     0.006 A   
ATOM     11  C24 UNL     1       2.309   3.937   0.176  1.00  0.00     0.131 A   
ATOM     12  C4  UNL     1       4.574   2.951   1.430  1.00  0.00     0.001 A   
ATOM     13  C5  UNL     1       4.031   2.264   0.341  1.00  0.00     0.009 A   
ATOM     14  C1  UNL     1       2.190   5.899   1.747  1.00  0.00     0.047 C   
ATOM     15  F1  UNL     1       1.203   4.409  -0.424  1.00  0.00    -0.206 F   
ENDBRANCH   7   8
BRANCH   7  16
ATOM     16  C8  UNL     1       3.172   1.171  -2.338  1.00  0.00     0.186 C   
BRANCH  16  17
ATOM     17  O1  UNL     1       2.546   0.836  -3.585  1.00  0.00    -0.394 OA  
ATOM     18  H10 UNL     1       3.224   0.396  -4.135  1.00  0.00     0.210 HD  
ENDBRANCH  16  17
ENDBRANCH   7  16
ENDBRANCH   1   7
BRANCH   3  19
ATOM     19  C11 UNL     1      -2.430   0.333  -0.653  1.00  0.00     0.120 C   
BRANCH  19  20
ATOM     20  N2  UNL     1      -2.610  -1.143  -0.382  1.00  0.00     0.250 N   
ATOM     21  H13 UNL     1      -3.548  -1.371  -0.044  1.00  0.00     0.199 HD  
ATOM     22  H14 UNL     1      -1.961  -1.380   0.383  1.00  0.00     0.199 HD  
BRANCH  20  23
ATOM     23  C12 UNL     1      -2.287  -2.045  -1.524  1.00  0.00     0.164 C   
BRANCH  23  24
ATOM     24  C13 UNL     1      -2.389  -3.481  -1.091  1.00  0.00    -0.002 A   
ATOM     25  C14 UNL     1      -1.293  -4.106  -0.449  1.00  0.00     0.012 A   
ATOM     26  C18 UNL     1      -3.587  -4.192  -1.269  1.00  0.00     0.045 A   
ATOM     27  C15 UNL     1      -1.387  -5.425   0.008  1.00  0.00     0.037 A   
ATOM     28  C17 UNL     1      -3.645  -5.491  -0.810  1.00  0.00     0.109 A   
ATOM     29  C16 UNL     1      -2.577  -6.090  -0.189  1.00  0.00     0.108 A   
ATOM     30  O2  UNL     1      -4.723  -6.313  -0.893  1.00  0.00    -0.316 OA  
ATOM     31  O3  UNL     1      -2.847  -7.364   0.196  1.00  0.00    -0.316 OA  
ATOM     32  C19 UNL     1      -4.213  -7.502  -0.248  1.00  0.00     0.337 C   
ENDBRANCH  23  24
ENDBRANCH  20  23
ENDBRANCH  19  20
BRANCH  19  33
ATOM     33  C20 UNL     1      -3.223   1.183   0.403  1.00  0.00     0.010 C   
ATOM     34  C21 UNL     1      -2.753   0.919   1.849  1.00  0.00     0.017 C   
ATOM     35  C22 UNL     1      -4.737   0.877   0.317  1.00  0.00     0.017 C   
ATOM     36  C23 UNL     1      -3.058   2.691   0.109  1.00  0.00     0.017 C   
ENDBRANCH  19  33
ENDBRANCH   3  19
TORSDOF 9
