REMARK SMILES Cc1ccc([C@@H](CO)n2cc([C@H](CC(C)C)[NH2+]Cc3ccc4c(c3)OCO4)nn2)cn1
REMARK SMILES IDX 9 1 10 2 11 3 28 4 29 5 6 7 5 8 2 9 3 10 31 11 4 12 30 13
REMARK SMILES IDX 1 14 7 15 8 16 12 18 13 19 14 20 15 21 16 22 17 23 18 26
REMARK SMILES IDX 19 27 20 28 24 29 21 30 23 31 22 32 25 33 27 34 26 35
REMARK H PARENT 10 6 8 17 17 24 17 25
ROOT
ATOM     1   N1  UNL     1       1.562  -0.003   1.181  1.00  0.00    -0.202 N   
ATOM     2   C8  UNL     1       0.242  -0.371   1.121  1.00  0.00     0.046 A   
ATOM     3   C9  UNL     1      -0.129  -0.099  -0.178  1.00  0.00     0.127 A   
ATOM     4   N3  UNL     1       0.949   0.423  -0.849  1.00  0.00    -0.132 NA  
ATOM     5   N4  UNL     1       1.966   0.497  -0.005  1.00  0.00    -0.075 NA  
ATOM     6   H10 UNL     1      -0.275  -0.799   1.967  1.00  0.00     0.083 HD  
ENDROOT
BRANCH   1   7
ATOM     7   C6  UNL     1       2.504  -0.096   2.300  1.00  0.00     0.157 C   
BRANCH   7   8
ATOM     8   C5  UNL     1       1.833   0.263   3.611  1.00  0.00    -0.005 A   
ATOM     9   C2  UNL     1       0.562   1.111   5.919  1.00  0.00     0.037 A   
ATOM     10  C3  UNL     1       0.792  -0.247   5.735  1.00  0.00     0.024 A   
ATOM     11  N5  UNL     1       0.930   2.036   5.003  1.00  0.00    -0.261 NA  
ATOM     12  C4  UNL     1       1.427  -0.672   4.568  1.00  0.00     0.009 A   
ATOM     13  C23 UNL     1       1.559   1.601   3.891  1.00  0.00     0.117 A   
ATOM     14  C1  UNL     1      -0.118   1.604   7.163  1.00  0.00     0.067 C   
ENDBRANCH   7   8
BRANCH   7  15
ATOM     15  C7  UNL     1       3.280  -1.426   2.253  1.00  0.00     0.186 C   
BRANCH  15  16
ATOM     16  O1  UNL     1       2.426  -2.573   2.300  1.00  0.00    -0.394 OA  
ATOM     17  H9  UNL     1       3.010  -3.356   2.261  1.00  0.00     0.210 HD  
ENDBRANCH  15  16
ENDBRANCH   7  15
ENDBRANCH   1   7
BRANCH   3  18
ATOM     18  C10 UNL     1      -1.438  -0.255  -0.886  1.00  0.00     0.114 C   
BRANCH  18  19
ATOM     19  C11 UNL     1      -1.683  -1.694  -1.387  1.00  0.00     0.064 C   
BRANCH  19  20
ATOM     20  C12 UNL     1      -1.849  -2.767  -0.289  1.00  0.00    -0.012 C   
ATOM     21  C13 UNL     1      -3.022  -2.467   0.650  1.00  0.00     0.007 C   
ATOM     22  C14 UNL     1      -2.053  -4.140  -0.938  1.00  0.00     0.007 C   
ENDBRANCH  19  20
ENDBRANCH  18  19
BRANCH  18  23
ATOM     23  N2  UNL     1      -1.469   0.637  -2.107  1.00  0.00     0.249 N   
ATOM     24  H21 UNL     1      -0.563   0.512  -2.582  1.00  0.00     0.199 HD  
ATOM     25  H22 UNL     1      -2.189   0.346  -2.775  1.00  0.00     0.199 HD  
BRANCH  23  26
ATOM     26  C15 UNL     1      -1.622   2.096  -1.841  1.00  0.00     0.164 C   
BRANCH  26  27
ATOM     27  C16 UNL     1      -1.556   2.865  -3.134  1.00  0.00    -0.002 A   
ATOM     28  C17 UNL     1      -2.735   3.341  -3.755  1.00  0.00     0.012 A   
ATOM     29  C21 UNL     1      -0.314   3.063  -3.765  1.00  0.00     0.045 A   
ATOM     30  C18 UNL     1      -2.680   4.004  -4.986  1.00  0.00     0.037 A   
ATOM     31  C20 UNL     1      -0.296   3.717  -4.978  1.00  0.00     0.109 A   
ATOM     32  C19 UNL     1      -1.444   4.177  -5.571  1.00  0.00     0.108 A   
ATOM     33  O2  UNL     1       0.813   3.979  -5.714  1.00  0.00    -0.316 OA  
ATOM     34  O3  UNL     1      -1.202   4.796  -6.755  1.00  0.00    -0.316 OA  
ATOM     35  C22 UNL     1       0.234   4.685  -6.835  1.00  0.00     0.337 C   
ENDBRANCH  26  27
ENDBRANCH  23  26
ENDBRANCH  18  23
ENDBRANCH   3  18
TORSDOF 10
