REMARK SMILES Cc1ccc([C@H](CO)n2cc([C@H](CC(C)C)[NH2+]Cc3ccc4c(c3)OCO4)nn2)cn1
REMARK SMILES IDX 9 1 10 2 11 3 28 4 29 5 6 7 5 8 2 9 3 10 31 11 4 12 30 13
REMARK SMILES IDX 1 14 7 15 8 16 12 18 13 19 14 20 15 21 16 22 17 23 18 26
REMARK SMILES IDX 19 27 20 28 24 29 21 30 23 31 22 32 25 33 27 34 26 35
REMARK H PARENT 10 6 8 17 17 24 17 25
ROOT
ATOM     1   N1  UNL     1       0.525   0.549  -2.623  1.00  0.00    -0.202 N   
ATOM     2   C8  UNL     1       0.035   0.246  -1.381  1.00  0.00     0.046 A   
ATOM     3   C9  UNL     1       0.353  -1.081  -1.207  1.00  0.00     0.127 A   
ATOM     4   N3  UNL     1       0.978  -1.546  -2.335  1.00  0.00    -0.132 NA  
ATOM     5   N4  UNL     1       1.065  -0.547  -3.198  1.00  0.00    -0.075 NA  
ATOM     6   H10 UNL     1      -0.468   0.978  -0.762  1.00  0.00     0.083 HD  
ENDROOT
BRANCH   1   7
ATOM     7   C6  UNL     1       0.520   1.829  -3.332  1.00  0.00     0.157 C   
BRANCH   7   8
ATOM     8   C5  UNL     1       1.116   2.921  -2.465  1.00  0.00    -0.005 A   
ATOM     9   C2  UNL     1       2.207   4.875  -0.835  1.00  0.00     0.037 A   
ATOM     10  C3  UNL     1       3.058   4.064  -1.574  1.00  0.00     0.024 A   
ATOM     11  N5  UNL     1       0.862   4.737  -0.879  1.00  0.00    -0.261 NA  
ATOM     12  C4  UNL     1       2.507   3.077  -2.388  1.00  0.00     0.009 A   
ATOM     13  C23 UNL     1       0.350   3.780  -1.685  1.00  0.00     0.117 A   
ATOM     14  C1  UNL     1       2.764   5.955   0.043  1.00  0.00     0.067 C   
ENDBRANCH   7   8
BRANCH   7  15
ATOM     15  C7  UNL     1      -0.857   2.116  -3.965  1.00  0.00     0.186 C   
BRANCH  15  16
ATOM     16  O1  UNL     1      -1.920   2.103  -3.013  1.00  0.00    -0.394 OA  
ATOM     17  H9  UNL     1      -2.727   2.392  -3.481  1.00  0.00     0.210 HD  
ENDBRANCH  15  16
ENDBRANCH   7  15
ENDBRANCH   1   7
BRANCH   3  18
ATOM     18  C10 UNL     1       0.079  -2.008  -0.073  1.00  0.00     0.114 C   
BRANCH  18  19
ATOM     19  C11 UNL     1       1.309  -2.212   0.833  1.00  0.00     0.064 C   
BRANCH  19  20
ATOM     20  C12 UNL     1       1.808  -0.943   1.559  1.00  0.00    -0.012 C   
ATOM     21  C13 UNL     1       3.067  -1.273   2.366  1.00  0.00     0.007 C   
ATOM     22  C14 UNL     1       0.747  -0.344   2.484  1.00  0.00     0.007 C   
ENDBRANCH  19  20
ENDBRANCH  18  19
BRANCH  18  23
ATOM     23  N2  UNL     1      -0.304  -3.378  -0.603  1.00  0.00     0.249 N   
ATOM     24  H21 UNL     1      -0.311  -4.059   0.162  1.00  0.00     0.199 HD  
ATOM     25  H22 UNL     1       0.445  -3.651  -1.255  1.00  0.00     0.199 HD  
BRANCH  23  26
ATOM     26  C15 UNL     1      -1.596  -3.462  -1.347  1.00  0.00     0.164 C   
BRANCH  26  27
ATOM     27  C16 UNL     1      -2.793  -3.203  -0.475  1.00  0.00    -0.002 A   
ATOM     28  C17 UNL     1      -3.237  -4.185   0.443  1.00  0.00     0.012 A   
ATOM     29  C21 UNL     1      -3.458  -1.966  -0.542  1.00  0.00     0.045 A   
ATOM     30  C18 UNL     1      -4.325  -3.939   1.287  1.00  0.00     0.037 A   
ATOM     31  C20 UNL     1      -4.526  -1.756   0.306  1.00  0.00     0.109 A   
ATOM     32  C19 UNL     1      -4.947  -2.713   1.196  1.00  0.00     0.108 A   
ATOM     33  O2  UNL     1      -5.269  -0.621   0.374  1.00  0.00    -0.316 OA  
ATOM     34  O3  UNL     1      -6.008  -2.302   1.936  1.00  0.00    -0.316 OA  
ATOM     35  C22 UNL     1      -6.227  -0.981   1.396  1.00  0.00     0.337 C   
ENDBRANCH  26  27
ENDBRANCH  23  26
ENDBRANCH  18  23
ENDBRANCH   3  18
TORSDOF 10
