REMARK SMILES Cc1cc(-n2cc([C@@H]([NH2+]Cc3ccc4c(c3)OCO4)C(C)(C)C)nn2)cnc1Cl
REMARK SMILES IDX 8 1 7 2 5 3 6 4 25 5 24 6 4 7 2 8 3 9 28 10 27 11 26 12 1 13
REMARK SMILES IDX 29 14 9 15 10 18 11 19 12 20 16 21 13 22 15 23 14 24 17 25
REMARK SMILES IDX 19 26 18 27 20 28 21 29 22 30 23 31
REMARK H PARENT 9 16 9 17
ROOT
ATOM     1   C7  UNL     1       2.494  -1.046  -0.113  1.00  0.00     0.120 C   
ENDROOT
BRANCH   1   2
ATOM     2   C6  UNL     1       1.485  -0.124  -0.731  1.00  0.00     0.128 A   
ATOM     3   N1  UNL     1      -0.096   1.330  -1.146  1.00  0.00    -0.179 N   
ATOM     4   C5  UNL     1       0.970   1.081  -0.303  1.00  0.00     0.135 A   
ATOM     5   N4  UNL     1      -0.139   0.361  -2.095  1.00  0.00    -0.071 NA  
ATOM     6   N3  UNL     1       0.796  -0.537  -1.836  1.00  0.00    -0.131 NA  
BRANCH   3   7
ATOM     7   C4  UNL     1      -1.073   2.343  -1.069  1.00  0.00     0.076 A   
ATOM     8   C2  UNL     1      -2.082   4.275  -0.008  1.00  0.00    -0.012 A   
ATOM     9   C3  UNL     1      -1.059   3.316  -0.064  1.00  0.00     0.034 A   
ATOM     10  C21 UNL     1      -3.078   4.202  -0.980  1.00  0.00     0.132 A   
ATOM     11  N5  UNL     1      -3.118   3.271  -1.957  1.00  0.00    -0.242 NA  
ATOM     12  C20 UNL     1      -2.114   2.366  -1.989  1.00  0.00     0.138 A   
ATOM     13  C1  UNL     1      -2.085   5.327   1.060  1.00  0.00     0.048 C   
ATOM     14  CL1 UNL     1      -4.400   5.297  -1.037  1.00  0.00    -0.062 Cl  
ENDBRANCH   3   7
ENDBRANCH   1   2
BRANCH   1  15
ATOM     15  N2  UNL     1       1.901  -2.447  -0.099  1.00  0.00     0.250 N   
ATOM     16  H7  UNL     1       1.258  -2.491  -0.906  1.00  0.00     0.199 HD  
ATOM     17  H8  UNL     1       2.613  -3.158  -0.286  1.00  0.00     0.199 HD  
BRANCH  15  18
ATOM     18  C8  UNL     1       1.142  -2.844   1.127  1.00  0.00     0.164 C   
BRANCH  18  19
ATOM     19  C9  UNL     1      -0.013  -1.940   1.461  1.00  0.00    -0.002 A   
ATOM     20  C10 UNL     1       0.057  -1.075   2.581  1.00  0.00     0.012 A   
ATOM     21  C14 UNL     1      -1.152  -1.905   0.636  1.00  0.00     0.045 A   
ATOM     22  C11 UNL     1      -0.973  -0.169   2.858  1.00  0.00     0.037 A   
ATOM     23  C13 UNL     1      -2.145  -0.993   0.932  1.00  0.00     0.109 A   
ATOM     24  C12 UNL     1      -2.056  -0.145   2.007  1.00  0.00     0.108 A   
ATOM     25  O1  UNL     1      -3.282  -0.802   0.214  1.00  0.00    -0.316 OA  
ATOM     26  O2  UNL     1      -3.126   0.686   2.103  1.00  0.00    -0.316 OA  
ATOM     27  C15 UNL     1      -3.928   0.234   0.988  1.00  0.00     0.337 C   
ENDBRANCH  18  19
ENDBRANCH  15  18
ENDBRANCH   1  15
BRANCH   1  28
ATOM     28  C16 UNL     1       3.894  -1.040  -0.818  1.00  0.00     0.010 C   
ATOM     29  C17 UNL     1       4.458   0.399  -0.853  1.00  0.00     0.017 C   
ATOM     30  C18 UNL     1       3.846  -1.576  -2.262  1.00  0.00     0.017 C   
ATOM     31  C19 UNL     1       4.897  -1.898  -0.011  1.00  0.00     0.017 C   
ENDBRANCH   1  28
TORSDOF 6
