REMARK SMILES CC(C)[C@H]([NH2+]Cc1ccc2c(c1)OCO2)c1cn(C[C@H]2NCCc3sccc32)nn1
REMARK SMILES IDX 16 1 17 2 18 3 29 4 30 5 4 7 2 8 1 9 3 10 5 11 6 14 7 15
REMARK SMILES IDX 8 16 12 17 9 18 11 19 10 20 13 21 15 22 14 23 19 24 20 25
REMARK SMILES IDX 21 26 28 27 22 28 24 29 27 30 23 31 25 32 26 33
REMARK H PARENT 17 6 5 12 5 13 21 34
ROOT
ATOM     1   C13 UNL     1       0.614   0.723  -1.081  1.00  0.00     0.127 A   
ATOM     2   C14 UNL     1       1.396   1.508  -0.264  1.00  0.00     0.045 A   
ATOM     3   N2  UNL     1       0.516   2.005   0.655  1.00  0.00    -0.210 N   
ATOM     4   N4  UNL     1      -0.735   1.570   0.410  1.00  0.00    -0.076 NA  
ATOM     5   N5  UNL     1      -0.688   0.784  -0.652  1.00  0.00    -0.132 NA  
ATOM     6   H18 UNL     1       2.453   1.733  -0.233  1.00  0.00     0.083 HD  
ENDROOT
BRANCH   1   7
ATOM     7   C4  UNL     1       0.966  -0.147  -2.246  1.00  0.00     0.117 C   
BRANCH   7   8
ATOM     8   C2  UNL     1       1.091   0.661  -3.564  1.00  0.00     0.037 C   
ATOM     9   C1  UNL     1      -0.240   1.226  -4.077  1.00  0.00     0.014 C   
ATOM     10  C3  UNL     1       1.763  -0.161  -4.670  1.00  0.00     0.014 C   
ENDBRANCH   7   8
BRANCH   7  11
ATOM     11  N1  UNL     1      -0.051  -1.246  -2.400  1.00  0.00     0.249 N   
ATOM     12  H9  UNL     1      -0.047  -1.650  -3.341  1.00  0.00     0.199 HD  
ATOM     13  H10 UNL     1      -0.977  -0.810  -2.275  1.00  0.00     0.199 HD  
BRANCH  11  14
ATOM     14  C5  UNL     1       0.049  -2.345  -1.400  1.00  0.00     0.164 C   
BRANCH  14  15
ATOM     15  C6  UNL     1      -1.069  -3.330  -1.596  1.00  0.00    -0.002 A   
ATOM     16  C7  UNL     1      -2.315  -3.125  -0.956  1.00  0.00     0.012 A   
ATOM     17  C11 UNL     1      -0.906  -4.424  -2.462  1.00  0.00     0.045 A   
ATOM     18  C8  UNL     1      -3.383  -4.004  -1.164  1.00  0.00     0.037 A   
ATOM     19  C10 UNL     1      -1.980  -5.271  -2.646  1.00  0.00     0.109 A   
ATOM     20  C9  UNL     1      -3.183  -5.068  -2.016  1.00  0.00     0.108 A   
ATOM     21  O1  UNL     1      -1.990  -6.370  -3.445  1.00  0.00    -0.316 OA  
ATOM     22  O2  UNL     1      -4.102  -6.014  -2.337  1.00  0.00    -0.316 OA  
ATOM     23  C12 UNL     1      -3.336  -6.853  -3.228  1.00  0.00     0.337 C   
ENDBRANCH  14  15
ENDBRANCH  11  14
ENDBRANCH   7  11
ENDBRANCH   1   7
BRANCH   3  24
ATOM     24  C15 UNL     1       0.779   2.897   1.766  1.00  0.00     0.157 C   
BRANCH  24  25
ATOM     25  C16 UNL     1       0.983   2.135   3.087  1.00  0.00     0.104 C   
ATOM     26  N3  UNL     1       2.253   1.347   3.033  1.00  0.00    -0.308 NA  
ATOM     27  C22 UNL     1       1.028   3.047   4.301  1.00  0.00    -0.019 A   
ATOM     28  C17 UNL     1       2.487   0.645   4.317  1.00  0.00     0.087 C   
ATOM     29  C19 UNL     1       1.844   2.782   5.388  1.00  0.00    -0.005 A   
ATOM     30  C21 UNL     1       0.235   4.215   4.550  1.00  0.00     0.013 A   
ATOM     31  C18 UNL     1       2.782   1.620   5.473  1.00  0.00     0.058 C   
ATOM     32  S1  UNL     1       1.706   3.925   6.636  1.00  0.00    -0.102 S   
ATOM     33  C20 UNL     1       0.513   4.791   5.772  1.00  0.00     0.046 A   
ATOM     34  H22 UNL     1       3.025   2.006   2.908  1.00  0.00     0.123 HD  
ENDBRANCH  24  25
ENDBRANCH   3  24
TORSDOF 7
