REMARK SMILES CC(C)[C@H]([NH2+]Cc1ccc2c(c1)OCO2)c1cn(C[C@@H]2NCCc3sccc32)nn1
REMARK SMILES IDX 16 1 17 2 18 3 29 4 30 5 4 7 2 8 1 9 3 10 5 11 6 14 7 15
REMARK SMILES IDX 8 16 12 17 9 18 11 19 10 20 13 21 15 22 14 23 19 24 20 25
REMARK SMILES IDX 21 26 28 27 22 28 24 29 27 30 23 31 25 32 26 33
REMARK H PARENT 17 6 5 12 5 13 21 34
ROOT
ATOM     1   C13 UNL     1      -0.642   0.048  -2.228  1.00  0.00     0.127 A   
ATOM     2   C14 UNL     1      -1.840   0.569  -1.797  1.00  0.00     0.045 A   
ATOM     3   N2  UNL     1      -2.770  -0.046  -2.587  1.00  0.00    -0.210 N   
ATOM     4   N4  UNL     1      -2.173  -0.821  -3.514  1.00  0.00    -0.076 NA  
ATOM     5   N5  UNL     1      -0.870  -0.790  -3.290  1.00  0.00    -0.132 NA  
ATOM     6   H18 UNL     1      -2.114   1.224  -0.982  1.00  0.00     0.083 HD  
ENDROOT
BRANCH   1   7
ATOM     7   C4  UNL     1       0.733   0.151  -1.649  1.00  0.00     0.117 C   
BRANCH   7   8
ATOM     8   C2  UNL     1       1.645   1.188  -2.349  1.00  0.00     0.037 C   
ATOM     9   C1  UNL     1       1.929   0.899  -3.826  1.00  0.00     0.014 C   
ATOM     10  C3  UNL     1       1.087   2.608  -2.201  1.00  0.00     0.014 C   
ENDBRANCH   7   8
BRANCH   7  11
ATOM     11  N1  UNL     1       1.333  -1.236  -1.697  1.00  0.00     0.249 N   
ATOM     12  H9  UNL     1       0.612  -1.867  -1.324  1.00  0.00     0.199 HD  
ATOM     13  H10 UNL     1       1.398  -1.514  -2.685  1.00  0.00     0.199 HD  
BRANCH  11  14
ATOM     14  C5  UNL     1       2.602  -1.500  -0.979  1.00  0.00     0.164 C   
BRANCH  14  15
ATOM     15  C6  UNL     1       2.508  -1.252   0.501  1.00  0.00    -0.002 A   
ATOM     16  C7  UNL     1       1.692  -2.074   1.317  1.00  0.00     0.012 A   
ATOM     17  C11 UNL     1       3.213  -0.186   1.083  1.00  0.00     0.045 A   
ATOM     18  C8  UNL     1       1.573  -1.834   2.690  1.00  0.00     0.037 A   
ATOM     19  C10 UNL     1       3.078   0.020   2.440  1.00  0.00     0.109 A   
ATOM     20  C9  UNL     1       2.280  -0.779   3.221  1.00  0.00     0.108 A   
ATOM     21  O1  UNL     1       3.692   0.998   3.154  1.00  0.00    -0.316 OA  
ATOM     22  O2  UNL     1       2.289  -0.402   4.524  1.00  0.00    -0.316 OA  
ATOM     23  C12 UNL     1       3.225   0.697   4.489  1.00  0.00     0.337 C   
ENDBRANCH  14  15
ENDBRANCH  11  14
ENDBRANCH   7  11
ENDBRANCH   1   7
BRANCH   3  24
ATOM     24  C15 UNL     1      -4.214  -0.026  -2.474  1.00  0.00     0.157 C   
BRANCH  24  25
ATOM     25  C16 UNL     1      -4.760  -0.534  -1.119  1.00  0.00     0.104 C   
ATOM     26  N3  UNL     1      -4.592   0.517  -0.074  1.00  0.00    -0.308 NA  
ATOM     27  C22 UNL     1      -4.133  -1.840  -0.664  1.00  0.00    -0.019 A   
ATOM     28  C17 UNL     1      -4.890   0.020   1.284  1.00  0.00     0.087 C   
ATOM     29  C19 UNL     1      -3.735  -2.061   0.641  1.00  0.00    -0.005 A   
ATOM     30  C21 UNL     1      -3.909  -3.013  -1.458  1.00  0.00     0.013 A   
ATOM     31  C18 UNL     1      -3.887  -1.057   1.736  1.00  0.00     0.058 C   
ATOM     32  S1  UNL     1      -3.053  -3.595   0.890  1.00  0.00    -0.102 S   
ATOM     33  C20 UNL     1      -3.331  -4.038  -0.739  1.00  0.00     0.046 A   
ATOM     34  H22 UNL     1      -5.239   1.280  -0.280  1.00  0.00     0.123 HD  
ENDBRANCH  24  25
ENDBRANCH   3  24
TORSDOF 7
