REMARK SMILES Cc1csc(Cn2cc([C@@H]([NH2+]Cc3ccc4c(c3)OCO4)C3CCCC3)nn2)c1
REMARK SMILES IDX 7 1 8 2 9 3 27 4 28 5 6 7 5 8 2 9 3 10 29 11 4 12 1 13 10 14
REMARK SMILES IDX 11 15 12 18 13 19 14 20 18 21 15 22 17 23 16 24 19 25 21 26
REMARK SMILES IDX 20 27 22 28 23 29 26 30 24 31 25 32
REMARK H PARENT 8 6 11 16 11 17
ROOT
ATOM     1   N1  UNL     1       2.081   0.634  -0.640  1.00  0.00    -0.207 N   
ATOM     2   C6  UNL     1       1.608  -0.430   0.080  1.00  0.00     0.046 A   
ATOM     3   C7  UNL     1       0.529  -0.872  -0.652  1.00  0.00     0.127 A   
ATOM     4   N3  UNL     1       0.387  -0.086  -1.768  1.00  0.00    -0.132 NA  
ATOM     5   N4  UNL     1       1.342   0.829  -1.752  1.00  0.00    -0.076 NA  
ATOM     6   H7  UNL     1       2.055  -0.740   1.014  1.00  0.00     0.083 HD  
ENDROOT
BRANCH   1   7
ATOM     7   C5  UNL     1       3.233   1.474  -0.355  1.00  0.00     0.176 C   
BRANCH   7   8
ATOM     8   C4  UNL     1       2.881   2.525   0.650  1.00  0.00     0.009 A   
ATOM     9   C2  UNL     1       2.091   4.501   1.636  1.00  0.00    -0.044 A   
ATOM     10  C3  UNL     1       2.638   3.836   2.717  1.00  0.00     0.049 A   
ATOM     11  C22 UNL     1       2.243   3.732   0.438  1.00  0.00     0.016 A   
ATOM     12  S1  UNL     1       3.288   2.314   2.299  1.00  0.00    -0.100 S   
ATOM     13  C1  UNL     1       1.443   5.842   1.711  1.00  0.00     0.045 C   
ENDBRANCH   7   8
ENDBRANCH   1   7
BRANCH   3  14
ATOM     14  C8  UNL     1      -0.471  -1.952  -0.397  1.00  0.00     0.117 C   
BRANCH  14  15
ATOM     15  N2  UNL     1      -1.829  -1.465  -0.867  1.00  0.00     0.249 N   
ATOM     16  H9  UNL     1      -2.300  -2.172  -1.438  1.00  0.00     0.199 HD  
ATOM     17  H10 UNL     1      -1.635  -0.685  -1.518  1.00  0.00     0.199 HD  
BRANCH  15  18
ATOM     18  C9  UNL     1      -2.759  -0.976   0.187  1.00  0.00     0.164 C   
BRANCH  18  19
ATOM     19  C10 UNL     1      -2.231   0.183   0.985  1.00  0.00    -0.002 A   
ATOM     20  C11 UNL     1      -2.069   1.457   0.387  1.00  0.00     0.012 A   
ATOM     21  C15 UNL     1      -1.878   0.006   2.334  1.00  0.00     0.045 A   
ATOM     22  C12 UNL     1      -1.565   2.538   1.120  1.00  0.00     0.037 A   
ATOM     23  C14 UNL     1      -1.385   1.092   3.027  1.00  0.00     0.109 A   
ATOM     24  C13 UNL     1      -1.237   2.324   2.439  1.00  0.00     0.108 A   
ATOM     25  O1  UNL     1      -1.001   1.088   4.330  1.00  0.00    -0.316 OA  
ATOM     26  O2  UNL     1      -0.753   3.254   3.302  1.00  0.00    -0.316 OA  
ATOM     27  C16 UNL     1      -0.607   2.467   4.503  1.00  0.00     0.337 C   
ENDBRANCH  18  19
ENDBRANCH  15  18
ENDBRANCH  14  15
BRANCH  14  28
ATOM     28  C17 UNL     1      -0.128  -3.255  -1.144  1.00  0.00     0.043 C   
ATOM     29  C18 UNL     1       1.210  -3.869  -0.718  1.00  0.00     0.010 C   
ATOM     30  C21 UNL     1      -1.098  -4.408  -0.860  1.00  0.00     0.010 C   
ATOM     31  C19 UNL     1       1.145  -5.294  -1.248  1.00  0.00     0.001 C   
ATOM     32  C20 UNL     1      -0.333  -5.672  -1.246  1.00  0.00     0.001 C   
ENDBRANCH  14  28
ENDBRANCH   3  14
TORSDOF 7
