REMARK SMILES Cc1ccc(-n2cc([C@@H]([NH2+]Cc3ccc4c(c3)OCO4)C3CCCCC3)nn2)cc1N([O-])[O-]
REMARK SMILES IDX 6 1 7 2 8 3 27 4 28 5 5 6 2 7 3 8 30 9 4 10 29 11 1 12 31 13
REMARK SMILES IDX 32 14 33 15 9 16 10 17 11 20 12 21 13 22 17 23 14 24 16 25
REMARK SMILES IDX 15 26 18 27 20 28 19 29 21 30 22 31 26 32 23 33 25 34 24 35
REMARK H PARENT 10 18 10 19
ROOT
ATOM     1   N1  UNL     1       1.291   1.784   0.188  1.00  0.00    -0.181 N   
ATOM     2   C6  UNL     1       0.950   0.507  -0.213  1.00  0.00     0.135 A   
ATOM     3   C7  UNL     1       0.386  -0.080   0.898  1.00  0.00     0.127 A   
ATOM     4   N3  UNL     1       0.450   0.796   1.941  1.00  0.00    -0.131 NA  
ATOM     5   N4  UNL     1       1.014   1.912   1.510  1.00  0.00    -0.071 NA  
ENDROOT
BRANCH   1   6
ATOM     6   C5  UNL     1       1.860   2.838  -0.568  1.00  0.00     0.060 A   
ATOM     7   C2  UNL     1       3.027   4.972  -2.032  1.00  0.00    -0.022 A   
ATOM     8   C3  UNL     1       2.810   5.077  -0.649  1.00  0.00     0.007 A   
ATOM     9   C24 UNL     1       2.614   3.787  -2.671  1.00  0.00     0.122 A   
ATOM     10  C4  UNL     1       2.235   4.027   0.076  1.00  0.00     0.026 A   
ATOM     11  C23 UNL     1       2.047   2.717  -1.951  1.00  0.00     0.057 A   
ATOM     12  C1  UNL     1       3.651   6.134  -2.756  1.00  0.00     0.046 C   
BRANCH   9  13
ATOM     13  N5  UNL     1       2.756   3.611  -4.119  1.00  0.00     0.092 N   
ATOM     14  O3  UNL     1       3.182   2.514  -4.509  1.00  0.00    -0.138 OA  
ATOM     15  O4  UNL     1       2.406   4.548  -4.849  1.00  0.00    -0.138 OA  
ENDBRANCH   9  13
ENDBRANCH   1   6
BRANCH   3  16
ATOM     16  C8  UNL     1      -0.162  -1.458   1.124  1.00  0.00     0.117 C   
BRANCH  16  17
ATOM     17  N2  UNL     1       0.060  -1.825   2.576  1.00  0.00     0.249 N   
ATOM     18  H8  UNL     1       0.970  -1.423   2.842  1.00  0.00     0.199 HD  
ATOM     19  H9  UNL     1      -0.605  -1.299   3.156  1.00  0.00     0.199 HD  
BRANCH  17  20
ATOM     20  C9  UNL     1       0.058  -3.264   2.947  1.00  0.00     0.164 C   
BRANCH  20  21
ATOM     21  C10 UNL     1       1.255  -4.008   2.415  1.00  0.00    -0.002 A   
ATOM     22  C11 UNL     1       1.107  -4.934   1.352  1.00  0.00     0.012 A   
ATOM     23  C15 UNL     1       2.533  -3.778   2.958  1.00  0.00     0.045 A   
ATOM     24  C12 UNL     1       2.213  -5.617   0.832  1.00  0.00     0.037 A   
ATOM     25  C14 UNL     1       3.602  -4.466   2.421  1.00  0.00     0.109 A   
ATOM     26  C13 UNL     1       3.447  -5.359   1.389  1.00  0.00     0.108 A   
ATOM     27  O1  UNL     1       4.895  -4.359   2.829  1.00  0.00    -0.316 OA  
ATOM     28  O2  UNL     1       4.623  -5.926   1.014  1.00  0.00    -0.316 OA  
ATOM     29  C16 UNL     1       5.539  -5.310   1.949  1.00  0.00     0.337 C   
ENDBRANCH  20  21
ENDBRANCH  17  20
ENDBRANCH  16  17
BRANCH  16  30
ATOM     30  C17 UNL     1      -1.665  -1.607   0.759  1.00  0.00     0.043 C   
ATOM     31  C18 UNL     1      -2.596  -0.606   1.474  1.00  0.00     0.010 C   
ATOM     32  C22 UNL     1      -1.883  -1.527  -0.766  1.00  0.00     0.010 C   
ATOM     33  C19 UNL     1      -4.062  -0.822   1.093  1.00  0.00     0.001 C   
ATOM     34  C21 UNL     1      -3.348  -1.751  -1.141  1.00  0.00     0.001 C   
ATOM     35  C20 UNL     1      -4.266  -0.772  -0.417  1.00  0.00     0.000 C   
ENDBRANCH  16  30
ENDBRANCH   3  16
TORSDOF 7
