REMARK SMILES Cc1nn(C)c(Cl)c1Cn1cc([C@@H]([NH2+]Cc2ccc3c(c2)OCO3)C(C)C)nn1
REMARK SMILES IDX 10 1 11 2 12 3 28 4 29 5 9 7 8 8 2 9 3 10 4 11 6 12 1 13
REMARK SMILES IDX 5 14 7 15 13 16 14 17 15 20 16 21 17 22 21 23 18 24 20 25
REMARK SMILES IDX 19 26 22 27 24 28 23 29 25 30 26 31 27 32
REMARK H PARENT 11 6 14 18 14 19
ROOT
ATOM     1   N3  UNL     1      -0.696  -1.198  -1.589  1.00  0.00    -0.208 N   
ATOM     2   C7  UNL     1      -0.184   0.036  -1.885  1.00  0.00     0.046 A   
ATOM     3   C8  UNL     1       1.178  -0.138  -1.782  1.00  0.00     0.127 A   
ATOM     4   N5  UNL     1       1.442  -1.441  -1.443  1.00  0.00    -0.132 NA  
ATOM     5   N6  UNL     1       0.291  -2.083  -1.347  1.00  0.00    -0.076 NA  
ATOM     6   H9  UNL     1      -0.814   0.889  -2.097  1.00  0.00     0.083 HD  
ENDROOT
BRANCH   1   7
ATOM     7   C6  UNL     1      -2.088  -1.612  -1.542  1.00  0.00     0.174 C   
BRANCH   7   8
ATOM     8   C5  UNL     1      -2.609  -1.552  -0.153  1.00  0.00     0.029 A   
ATOM     9   C2  UNL     1      -2.476  -2.528   0.879  1.00  0.00     0.063 A   
ATOM     10  N1  UNL     1      -3.081  -2.146   2.012  1.00  0.00    -0.185 NA  
ATOM     11  N2  UNL     1      -3.644  -0.958   1.710  1.00  0.00    -0.217 N   
ATOM     12  C4  UNL     1      -3.342  -0.554   0.444  1.00  0.00     0.123 A   
ATOM     13  C1  UNL     1      -1.769  -3.835   0.833  1.00  0.00     0.069 C   
ATOM     14  C3  UNL     1      -4.481  -0.305   2.688  1.00  0.00     0.161 C   
ATOM     15  CL1 UNL     1      -3.867   0.952  -0.150  1.00  0.00    -0.065 Cl  
ENDBRANCH   7   8
ENDBRANCH   1   7
BRANCH   3  16
ATOM     16  C9  UNL     1       2.320   0.823  -1.883  1.00  0.00     0.117 C   
BRANCH  16  17
ATOM     17  N4  UNL     1       3.353   0.464  -0.835  1.00  0.00     0.249 N   
ATOM     18  H11 UNL     1       3.164  -0.521  -0.586  1.00  0.00     0.199 HD  
ATOM     19  H12 UNL     1       4.298   0.465  -1.228  1.00  0.00     0.199 HD  
BRANCH  17  20
ATOM     20  C10 UNL     1       3.351   1.272   0.417  1.00  0.00     0.164 C   
BRANCH  20  21
ATOM     21  C11 UNL     1       2.014   1.387   1.095  1.00  0.00    -0.002 A   
ATOM     22  C12 UNL     1       1.377   0.251   1.650  1.00  0.00     0.012 A   
ATOM     23  C16 UNL     1       1.373   2.637   1.162  1.00  0.00     0.045 A   
ATOM     24  C13 UNL     1       0.114   0.352   2.244  1.00  0.00     0.037 A   
ATOM     25  C15 UNL     1       0.132   2.703   1.758  1.00  0.00     0.109 A   
ATOM     26  C14 UNL     1      -0.482   1.593   2.282  1.00  0.00     0.108 A   
ATOM     27  O1  UNL     1      -0.619   3.828   1.894  1.00  0.00    -0.316 OA  
ATOM     28  O2  UNL     1      -1.696   1.882   2.818  1.00  0.00    -0.316 OA  
ATOM     29  C17 UNL     1      -1.761   3.309   2.609  1.00  0.00     0.337 C   
ENDBRANCH  20  21
ENDBRANCH  17  20
ENDBRANCH  16  17
BRANCH  16  30
ATOM     30  C18 UNL     1       2.955   0.848  -3.297  1.00  0.00     0.037 C   
ATOM     31  C19 UNL     1       3.633  -0.463  -3.714  1.00  0.00     0.014 C   
ATOM     32  C20 UNL     1       3.944   2.011  -3.445  1.00  0.00     0.014 C   
ENDBRANCH  16  30
ENDBRANCH   3  16
TORSDOF 7
