REMARK SMILES Cc1cc(-n2cc([C@@H]([NH2+]Cc3ccc4c(c3)OCO4)C(C)C)nn2)cnc1Cl
REMARK SMILES IDX 8 1 7 2 5 3 6 4 24 5 23 6 4 7 2 8 3 9 27 10 26 11 25 12 1 13
REMARK SMILES IDX 28 14 9 15 10 18 11 19 12 20 16 21 13 22 15 23 14 24 17 25
REMARK SMILES IDX 19 26 18 27 20 28 21 29 22 30
REMARK H PARENT 9 16 9 17
ROOT
ATOM     1   C7  UNL     1       2.267  -1.201  -1.625  1.00  0.00     0.117 C   
ENDROOT
BRANCH   1   2
ATOM     2   C6  UNL     1       1.756  -0.222  -0.616  1.00  0.00     0.127 A   
ATOM     3   N1  UNL     1       0.712   0.819   1.000  1.00  0.00    -0.179 N   
ATOM     4   C5  UNL     1       1.218  -0.415   0.638  1.00  0.00     0.135 A   
ATOM     5   N4  UNL     1       1.043   1.724   0.044  1.00  0.00    -0.071 NA  
ATOM     6   N3  UNL     1       1.647   1.097  -0.951  1.00  0.00    -0.131 NA  
BRANCH   3   7
ATOM     7   C4  UNL     1      -0.087   1.163   2.110  1.00  0.00     0.076 A   
ATOM     8   C2  UNL     1      -1.366   2.793   3.374  1.00  0.00    -0.012 A   
ATOM     9   C3  UNL     1      -0.534   2.478   2.290  1.00  0.00     0.034 A   
ATOM     10  C20 UNL     1      -1.714   1.751   4.229  1.00  0.00     0.132 A   
ATOM     11  N5  UNL     1      -1.297   0.473   4.080  1.00  0.00    -0.242 NA  
ATOM     12  C19 UNL     1      -0.489   0.207   3.031  1.00  0.00     0.138 A   
ATOM     13  C1  UNL     1      -1.856   4.195   3.576  1.00  0.00     0.048 C   
ATOM     14  CL1 UNL     1      -2.741   1.968   5.588  1.00  0.00    -0.062 Cl  
ENDBRANCH   3   7
ENDBRANCH   1   2
BRANCH   1  15
ATOM     15  N2  UNL     1       1.655  -0.901  -2.981  1.00  0.00     0.249 N   
ATOM     16  H7  UNL     1       2.308  -1.155  -3.729  1.00  0.00     0.199 HD  
ATOM     17  H8  UNL     1       1.547   0.124  -3.029  1.00  0.00     0.199 HD  
BRANCH  15  18
ATOM     18  C8  UNL     1       0.330  -1.530  -3.275  1.00  0.00     0.164 C   
BRANCH  18  19
ATOM     19  C9  UNL     1      -0.778  -1.084  -2.361  1.00  0.00    -0.002 A   
ATOM     20  C10 UNL     1      -1.327   0.216  -2.484  1.00  0.00     0.012 A   
ATOM     21  C14 UNL     1      -1.235  -1.929  -1.334  1.00  0.00     0.045 A   
ATOM     22  C11 UNL     1      -2.294   0.678  -1.584  1.00  0.00     0.037 A   
ATOM     23  C13 UNL     1      -2.181  -1.438  -0.457  1.00  0.00     0.109 A   
ATOM     24  C12 UNL     1      -2.694  -0.170  -0.577  1.00  0.00     0.108 A   
ATOM     25  O1  UNL     1      -2.684  -2.102   0.616  1.00  0.00    -0.316 OA  
ATOM     26  O2  UNL     1      -3.591   0.120   0.401  1.00  0.00    -0.316 OA  
ATOM     27  C15 UNL     1      -3.627  -1.128   1.126  1.00  0.00     0.337 C   
ENDBRANCH  18  19
ENDBRANCH  15  18
ENDBRANCH   1  15
BRANCH   1  28
ATOM     28  C16 UNL     1       3.811  -1.222  -1.766  1.00  0.00     0.037 C   
ATOM     29  C17 UNL     1       4.428   0.108  -2.210  1.00  0.00     0.014 C   
ATOM     30  C18 UNL     1       4.483  -1.698  -0.473  1.00  0.00     0.014 C   
ENDBRANCH   1  28
TORSDOF 6
