REMARK SMILES [O-]N([O-])c1ccc(Cn2cc([C@@H]([NH2+]Cc3ccc4c(c3)OCO4)C3CCCCC3)nn2)cc1
REMARK SMILES IDX 9 1 10 2 11 3 30 4 31 5 8 7 7 8 4 9 5 10 33 11 6 12 32 13
REMARK SMILES IDX 2 14 1 15 3 16 12 17 13 18 14 21 15 22 16 23 20 24 17 25
REMARK SMILES IDX 19 26 18 27 21 28 23 29 22 30 24 31 25 32 29 33 26 34 28 35
REMARK SMILES IDX 27 36
REMARK H PARENT 10 6 13 19 13 20
ROOT
ATOM     1   N2  UNL     1       0.287   2.176   0.985  1.00  0.00    -0.208 N   
ATOM     2   C6  UNL     1       0.059   0.826   0.961  1.00  0.00     0.046 A   
ATOM     3   C7  UNL     1       1.229   0.300   0.463  1.00  0.00     0.127 A   
ATOM     4   N4  UNL     1       2.120   1.319   0.234  1.00  0.00    -0.132 NA  
ATOM     5   N5  UNL     1       1.534   2.459   0.562  1.00  0.00    -0.076 NA  
ATOM     6   H5  UNL     1      -0.883   0.391   1.264  1.00  0.00     0.083 HD  
ENDROOT
BRANCH   1   7
ATOM     7   C5  UNL     1      -0.604   3.239   1.426  1.00  0.00     0.169 C   
BRANCH   7   8
ATOM     8   C4  UNL     1      -1.869   3.283   0.598  1.00  0.00    -0.028 A   
ATOM     9   C1  UNL     1      -4.203   3.322  -0.952  1.00  0.00     0.118 A   
ATOM     10  C2  UNL     1      -2.983   3.694  -1.526  1.00  0.00     0.031 A   
ATOM     11  C24 UNL     1      -4.269   2.950   0.396  1.00  0.00     0.031 A   
ATOM     12  C3  UNL     1      -1.821   3.674  -0.750  1.00  0.00     0.007 A   
ATOM     13  C23 UNL     1      -3.103   2.933   1.166  1.00  0.00     0.007 A   
BRANCH   9  14
ATOM     14  N1  UNL     1      -5.417   3.295  -1.775  1.00  0.00     0.092 N   
ATOM     15  O1  UNL     1      -6.490   3.050  -1.207  1.00  0.00    -0.138 OA  
ATOM     16  O2  UNL     1      -5.288   3.486  -2.993  1.00  0.00    -0.138 OA  
ENDBRANCH   9  14
ENDBRANCH   7   8
ENDBRANCH   1   7
BRANCH   3  17
ATOM     17  C8  UNL     1       1.624  -1.103   0.123  1.00  0.00     0.117 C   
BRANCH  17  18
ATOM     18  N3  UNL     1       2.687  -1.081  -0.955  1.00  0.00     0.249 N   
ATOM     19  H7  UNL     1       3.471  -1.693  -0.719  1.00  0.00     0.199 HD  
ATOM     20  H8  UNL     1       3.076  -0.124  -0.944  1.00  0.00     0.199 HD  
BRANCH  18  21
ATOM     21  C9  UNL     1       2.233  -1.384  -2.341  1.00  0.00     0.164 C   
BRANCH  21  22
ATOM     22  C10 UNL     1       1.164  -0.462  -2.862  1.00  0.00    -0.002 A   
ATOM     23  C11 UNL     1       1.439   0.907  -3.095  1.00  0.00     0.012 A   
ATOM     24  C15 UNL     1      -0.127  -0.957  -3.116  1.00  0.00     0.045 A   
ATOM     25  C12 UNL     1       0.443   1.772  -3.562  1.00  0.00     0.037 A   
ATOM     26  C14 UNL     1      -1.084  -0.078  -3.579  1.00  0.00     0.109 A   
ATOM     27  C13 UNL     1      -0.808   1.248  -3.794  1.00  0.00     0.108 A   
ATOM     28  O3  UNL     1      -2.370  -0.398  -3.875  1.00  0.00    -0.316 OA  
ATOM     29  O4  UNL     1      -1.888   1.933  -4.250  1.00  0.00    -0.316 OA  
ATOM     30  C16 UNL     1      -2.876   0.882  -4.317  1.00  0.00     0.337 C   
ENDBRANCH  21  22
ENDBRANCH  18  21
ENDBRANCH  17  18
BRANCH  17  31
ATOM     31  C17 UNL     1       2.111  -1.897   1.363  1.00  0.00     0.043 C   
ATOM     32  C18 UNL     1       2.260  -3.399   1.049  1.00  0.00     0.010 C   
ATOM     33  C22 UNL     1       3.404  -1.347   1.998  1.00  0.00     0.010 C   
ATOM     34  C19 UNL     1       2.676  -4.197   2.285  1.00  0.00     0.001 C   
ATOM     35  C21 UNL     1       3.813  -2.156   3.227  1.00  0.00     0.001 C   
ATOM     36  C20 UNL     1       3.950  -3.639   2.910  1.00  0.00     0.000 C   
ENDBRANCH  17  31
ENDBRANCH   3  17
TORSDOF 8
