REMARK SMILES OC[C@H](Cc1ccccc1)n1cc([C@@H]([NH2+]Cc2ccc3c(c2)OCO3)C2CCCC2)nn1
REMARK SMILES IDX 11 1 12 2 13 3 31 4 32 5 3 7 2 8 1 9 4 11 5 12 6 13 10 14
REMARK SMILES IDX 7 15 9 16 8 17 14 18 15 19 16 22 17 23 18 24 22 25 19 26
REMARK SMILES IDX 21 27 20 28 23 29 25 30 24 31 26 32 27 33 30 34 28 35 29 36
REMARK H PARENT 12 6 1 10 15 20 15 21
ROOT
ATOM     1   N1  UNL     1      -1.229   1.536   2.112  1.00  0.00    -0.206 N   
ATOM     2   C10 UNL     1      -0.093   1.091   1.494  1.00  0.00     0.046 A   
ATOM     3   C11 UNL     1      -0.432  -0.163   1.036  1.00  0.00     0.127 A   
ATOM     4   N3  UNL     1      -1.712  -0.454   1.439  1.00  0.00    -0.132 NA  
ATOM     5   N4  UNL     1      -2.180   0.583   2.112  1.00  0.00    -0.076 NA  
ATOM     6   H12 UNL     1       0.793   1.702   1.402  1.00  0.00     0.083 HD  
ENDROOT
BRANCH   1   7
ATOM     7   C2  UNL     1      -1.470   2.846   2.700  1.00  0.00     0.129 C   
BRANCH   7   8
ATOM     8   C1  UNL     1      -1.909   2.711   4.164  1.00  0.00     0.181 C   
BRANCH   8   9
ATOM     9   O1  UNL     1      -1.865   3.985   4.800  1.00  0.00    -0.394 OA  
ATOM     10  H1  UNL     1      -2.210   3.872   5.707  1.00  0.00     0.210 HD  
ENDBRANCH   8   9
ENDBRANCH   7   8
BRANCH   7  11
ATOM     11  C3  UNL     1      -2.487   3.668   1.883  1.00  0.00     0.063 C   
BRANCH  11  12
ATOM     12  C4  UNL     1      -2.043   3.906   0.456  1.00  0.00    -0.046 A   
ATOM     13  C5  UNL     1      -2.582   3.143  -0.590  1.00  0.00     0.004 A   
ATOM     14  C9  UNL     1      -1.076   4.877   0.165  1.00  0.00     0.004 A   
ATOM     15  C6  UNL     1      -2.168   3.354  -1.905  1.00  0.00     0.000 A   
ATOM     16  C8  UNL     1      -0.658   5.081  -1.151  1.00  0.00     0.000 A   
ATOM     17  C7  UNL     1      -1.205   4.321  -2.184  1.00  0.00     0.000 A   
ENDBRANCH  11  12
ENDBRANCH   7  11
ENDBRANCH   1   7
BRANCH   3  18
ATOM     18  C12 UNL     1       0.349  -1.182   0.271  1.00  0.00     0.117 C   
BRANCH  18  19
ATOM     19  N2  UNL     1      -0.164  -2.574   0.594  1.00  0.00     0.249 N   
ATOM     20  H14 UNL     1      -1.187  -2.529   0.494  1.00  0.00     0.199 HD  
ATOM     21  H15 UNL     1       0.181  -3.251  -0.092  1.00  0.00     0.199 HD  
BRANCH  19  22
ATOM     22  C13 UNL     1       0.119  -3.082   1.969  1.00  0.00     0.164 C   
BRANCH  22  23
ATOM     23  C14 UNL     1       1.569  -3.418   2.178  1.00  0.00    -0.002 A   
ATOM     24  C15 UNL     1       2.412  -2.541   2.901  1.00  0.00     0.012 A   
ATOM     25  C19 UNL     1       2.106  -4.594   1.624  1.00  0.00     0.045 A   
ATOM     26  C16 UNL     1       3.772  -2.827   3.074  1.00  0.00     0.037 A   
ATOM     27  C18 UNL     1       3.450  -4.846   1.813  1.00  0.00     0.109 A   
ATOM     28  C17 UNL     1       4.259  -3.989   2.518  1.00  0.00     0.108 A   
ATOM     29  O2  UNL     1       4.122  -5.931   1.345  1.00  0.00    -0.316 OA  
ATOM     30  O3  UNL     1       5.542  -4.428   2.585  1.00  0.00    -0.316 OA  
ATOM     31  C20 UNL     1       5.452  -5.668   1.850  1.00  0.00     0.337 C   
ENDBRANCH  22  23
ENDBRANCH  19  22
ENDBRANCH  18  19
BRANCH  18  32
ATOM     32  C21 UNL     1       0.295  -1.018  -1.261  1.00  0.00     0.043 C   
ATOM     33  C22 UNL     1       0.935   0.266  -1.804  1.00  0.00     0.010 C   
ATOM     34  C25 UNL     1      -1.098  -1.005  -1.895  1.00  0.00     0.010 C   
ATOM     35  C23 UNL     1       0.295   0.498  -3.176  1.00  0.00     0.001 C   
ATOM     36  C24 UNL     1      -0.811  -0.544  -3.317  1.00  0.00     0.001 C   
ENDBRANCH  18  32
ENDBRANCH   3  18
TORSDOF 10
