REMARK SMILES OC[C@@H](Cc1ccccc1)n1cc([C@@H]([NH2+]Cc2ccc3c(c2)OCO3)C2CCCC2)nn1
REMARK SMILES IDX 11 1 12 2 13 3 31 4 32 5 3 7 2 8 1 9 4 11 5 12 6 13 10 14
REMARK SMILES IDX 7 15 9 16 8 17 14 18 15 19 16 22 17 23 18 24 22 25 19 26
REMARK SMILES IDX 21 27 20 28 23 29 25 30 24 31 26 32 27 33 30 34 28 35 29 36
REMARK H PARENT 12 6 1 10 15 20 15 21
ROOT
ATOM     1   N1  UNL     1       2.050  -0.643   0.550  1.00  0.00    -0.206 N   
ATOM     2   C10 UNL     1       1.140  -0.941  -0.426  1.00  0.00     0.046 A   
ATOM     3   C11 UNL     1       0.742   0.289  -0.895  1.00  0.00     0.127 A   
ATOM     4   N3  UNL     1       1.412   1.273  -0.214  1.00  0.00    -0.132 NA  
ATOM     5   N4  UNL     1       2.205   0.692   0.671  1.00  0.00    -0.076 NA  
ATOM     6   H12 UNL     1       0.858  -1.958  -0.663  1.00  0.00     0.083 HD  
ENDROOT
BRANCH   1   7
ATOM     7   C2  UNL     1       2.715  -1.571   1.457  1.00  0.00     0.129 C   
BRANCH   7   8
ATOM     8   C1  UNL     1       4.232  -1.545   1.237  1.00  0.00     0.181 C   
BRANCH   8   9
ATOM     9   O1  UNL     1       4.542  -2.129  -0.028  1.00  0.00    -0.394 OA  
ATOM     10  H1  UNL     1       5.510  -2.080  -0.139  1.00  0.00     0.210 HD  
ENDBRANCH   8   9
ENDBRANCH   7   8
BRANCH   7  11
ATOM     11  C3  UNL     1       2.364  -1.283   2.928  1.00  0.00     0.063 C   
BRANCH  11  12
ATOM     12  C4  UNL     1       0.879  -1.338   3.219  1.00  0.00    -0.046 A   
ATOM     13  C5  UNL     1       0.185  -0.172   3.572  1.00  0.00     0.004 A   
ATOM     14  C9  UNL     1       0.177  -2.549   3.145  1.00  0.00     0.004 A   
ATOM     15  C6  UNL     1      -1.182  -0.217   3.849  1.00  0.00     0.000 A   
ATOM     16  C8  UNL     1      -1.192  -2.590   3.415  1.00  0.00     0.000 A   
ATOM     17  C7  UNL     1      -1.870  -1.426   3.770  1.00  0.00     0.000 A   
ENDBRANCH  11  12
ENDBRANCH   7  11
ENDBRANCH   1   7
BRANCH   3  18
ATOM     18  C12 UNL     1      -0.298   0.659  -1.899  1.00  0.00     0.117 C   
BRANCH  18  19
ATOM     19  N2  UNL     1      -1.059   1.876  -1.428  1.00  0.00     0.249 N   
ATOM     20  H14 UNL     1      -0.348   2.583  -1.196  1.00  0.00     0.199 HD  
ATOM     21  H15 UNL     1      -1.640   2.257  -2.177  1.00  0.00     0.199 HD  
BRANCH  19  22
ATOM     22  C13 UNL     1      -1.895   1.695  -0.202  1.00  0.00     0.164 C   
BRANCH  22  23
ATOM     23  C14 UNL     1      -3.024   0.720  -0.391  1.00  0.00    -0.002 A   
ATOM     24  C15 UNL     1      -4.157   1.070  -1.164  1.00  0.00     0.012 A   
ATOM     25  C19 UNL     1      -2.945  -0.561   0.182  1.00  0.00     0.045 A   
ATOM     26  C16 UNL     1      -5.197   0.155  -1.365  1.00  0.00     0.037 A   
ATOM     27  C18 UNL     1      -3.988  -1.438  -0.033  1.00  0.00     0.109 A   
ATOM     28  C17 UNL     1      -5.082  -1.090  -0.786  1.00  0.00     0.108 A   
ATOM     29  O2  UNL     1      -4.069  -2.706   0.448  1.00  0.00    -0.316 OA  
ATOM     30  O3  UNL     1      -5.991  -2.095  -0.873  1.00  0.00    -0.316 OA  
ATOM     31  C20 UNL     1      -5.362  -3.108  -0.058  1.00  0.00     0.337 C   
ENDBRANCH  22  23
ENDBRANCH  19  22
ENDBRANCH  18  19
BRANCH  18  32
ATOM     32  C21 UNL     1       0.315   0.899  -3.293  1.00  0.00     0.043 C   
ATOM     33  C22 UNL     1      -0.710   1.012  -4.429  1.00  0.00     0.010 C   
ATOM     34  C25 UNL     1       1.153   2.166  -3.470  1.00  0.00     0.010 C   
ATOM     35  C23 UNL     1       0.020   1.735  -5.563  1.00  0.00     0.001 C   
ATOM     36  C24 UNL     1       1.337   2.239  -4.979  1.00  0.00     0.001 C   
ENDBRANCH  18  32
ENDBRANCH   3  18
TORSDOF 10
