REMARK SMILES Cn1cc(-n2cc([C@@H]([NH2+]Cc3ccc4c(c3)OCO4)C(C)(C)C)nn2)ccc1=O
REMARK SMILES IDX 8 1 7 2 5 3 6 4 25 5 24 6 4 7 2 8 3 9 28 10 27 11 26 12 1 13
REMARK SMILES IDX 29 14 9 15 10 18 11 19 12 20 16 21 13 22 15 23 14 24 17 25
REMARK SMILES IDX 19 26 18 27 20 28 21 29 22 30 23 31
REMARK H PARENT 9 16 9 17
ROOT
ATOM     1   C6  UNL     1       2.557  -0.054  -1.140  1.00  0.00     0.120 C   
ENDROOT
BRANCH   1   2
ATOM     2   C5  UNL     1       1.607  -0.556  -0.094  1.00  0.00     0.128 A   
ATOM     3   N2  UNL     1      -0.145  -1.062   1.167  1.00  0.00    -0.179 N   
ATOM     4   C4  UNL     1       0.260  -0.824  -0.148  1.00  0.00     0.135 A   
ATOM     5   N5  UNL     1       0.990  -1.010   1.938  1.00  0.00    -0.071 NA  
ATOM     6   N4  UNL     1       2.032  -0.685   1.192  1.00  0.00    -0.131 NA  
BRANCH   3   7
ATOM     7   C3  UNL     1      -1.464  -1.276   1.635  1.00  0.00     0.072 A   
ATOM     8   N1  UNL     1      -2.982  -1.639   3.462  1.00  0.00    -0.276 N   
ATOM     9   C2  UNL     1      -1.706  -1.454   2.951  1.00  0.00     0.103 A   
ATOM     10  C21 UNL     1      -4.116  -1.645   2.658  1.00  0.00     0.242 A   
ATOM     11  C20 UNL     1      -3.864  -1.468   1.206  1.00  0.00     0.071 A   
ATOM     12  C19 UNL     1      -2.619  -1.297   0.742  1.00  0.00     0.033 A   
ATOM     13  C1  UNL     1      -3.136  -1.811   4.900  1.00  0.00     0.139 C   
ATOM     14  O3  UNL     1      -5.270  -1.779   3.049  1.00  0.00    -0.272 OA  
ENDBRANCH   3   7
ENDBRANCH   1   2
BRANCH   1  15
ATOM     15  N3  UNL     1       3.378   1.076  -0.541  1.00  0.00     0.250 N   
ATOM     16  H7  UNL     1       3.476   0.854   0.463  1.00  0.00     0.199 HD  
ATOM     17  H8  UNL     1       4.330   1.083  -0.914  1.00  0.00     0.199 HD  
BRANCH  15  18
ATOM     18  C7  UNL     1       2.810   2.454  -0.661  1.00  0.00     0.164 C   
BRANCH  18  19
ATOM     19  C8  UNL     1       1.513   2.645   0.075  1.00  0.00    -0.002 A   
ATOM     20  C9  UNL     1       1.501   2.726   1.489  1.00  0.00     0.012 A   
ATOM     21  C13 UNL     1       0.296   2.679  -0.628  1.00  0.00     0.045 A   
ATOM     22  C10 UNL     1       0.296   2.815   2.195  1.00  0.00     0.037 A   
ATOM     23  C12 UNL     1      -0.874   2.757   0.100  1.00  0.00     0.109 A   
ATOM     24  C11 UNL     1      -0.875   2.821   1.471  1.00  0.00     0.108 A   
ATOM     25  O1  UNL     1      -2.130   2.751  -0.419  1.00  0.00    -0.316 OA  
ATOM     26  O2  UNL     1      -2.129   2.874   1.987  1.00  0.00    -0.316 OA  
ATOM     27  C14 UNL     1      -2.925   2.881   0.783  1.00  0.00     0.337 C   
ENDBRANCH  18  19
ENDBRANCH  15  18
ENDBRANCH   1  15
BRANCH   1  28
ATOM     28  C15 UNL     1       3.491  -1.159  -1.745  1.00  0.00     0.010 C   
ATOM     29  C16 UNL     1       4.306  -0.578  -2.925  1.00  0.00     0.017 C   
ATOM     30  C17 UNL     1       4.477  -1.743  -0.714  1.00  0.00     0.017 C   
ATOM     31  C18 UNL     1       2.641  -2.317  -2.314  1.00  0.00     0.017 C   
ENDBRANCH   1  28
TORSDOF 6
