REMARK SMILES OCc1cc(CO)cc(-n2cc([C@@H]([NH2+]Cc3ccc4c(c3)OCO4)C3CCCC3)nn2)c1
REMARK SMILES IDX 10 1 11 2 12 3 30 4 31 5 9 6 3 7 4 8 32 9 5 10 8 11 2 12
REMARK SMILES IDX 1 13 6 15 7 16 13 18 14 19 15 22 16 23 17 24 21 25 18 26
REMARK SMILES IDX 20 27 19 28 22 29 24 30 23 31 25 32 26 33 29 34 27 35 28 36
REMARK H PARENT 1 14 7 17 14 20 14 21
ROOT
ATOM     1   N1  UNL     1      -0.197   0.133   1.015  1.00  0.00    -0.181 N   
ATOM     2   C8  UNL     1      -1.152  -0.150   0.057  1.00  0.00     0.135 A   
ATOM     3   C9  UNL     1      -0.961  -1.478  -0.252  1.00  0.00     0.127 A   
ATOM     4   N3  UNL     1       0.015  -1.992   0.556  1.00  0.00    -0.131 NA  
ATOM     5   N4  UNL     1       0.457  -1.017   1.332  1.00  0.00    -0.071 NA  
ENDROOT
BRANCH   1   6
ATOM     6   C7  UNL     1       0.165   1.383   1.572  1.00  0.00     0.058 A   
ATOM     7   C2  UNL     1       1.651   2.687   2.993  1.00  0.00    -0.020 A   
ATOM     8   C3  UNL     1       0.964   3.850   2.623  1.00  0.00     0.012 A   
ATOM     9   C24 UNL     1       1.249   1.455   2.458  1.00  0.00     0.032 A   
ATOM     10  C4  UNL     1      -0.119   3.799   1.731  1.00  0.00    -0.020 A   
ATOM     11  C6  UNL     1      -0.521   2.554   1.221  1.00  0.00     0.032 A   
BRANCH   7  12
ATOM     12  C1  UNL     1       2.845   2.755   3.909  1.00  0.00     0.191 C   
BRANCH  12  13
ATOM     13  O1  UNL     1       4.046   2.703   3.151  1.00  0.00    -0.392 OA  
ATOM     14  H1  UNL     1       3.842   3.005   2.248  1.00  0.00     0.211 HD  
ENDBRANCH  12  13
ENDBRANCH   7  12
BRANCH  10  15
ATOM     15  C5  UNL     1      -0.862   5.067   1.389  1.00  0.00     0.191 C   
BRANCH  15  16
ATOM     16  O2  UNL     1      -1.452   4.974   0.097  1.00  0.00    -0.392 OA  
ATOM     17  H7  UNL     1      -1.952   5.799  -0.023  1.00  0.00     0.211 HD  
ENDBRANCH  15  16
ENDBRANCH  10  15
ENDBRANCH   1   6
BRANCH   3  18
ATOM     18  C10 UNL     1      -1.510  -2.317  -1.359  1.00  0.00     0.117 C   
BRANCH  18  19
ATOM     19  N2  UNL     1      -0.372  -3.087  -2.009  1.00  0.00     0.249 N   
ATOM     20  H11 UNL     1      -0.699  -4.003  -2.330  1.00  0.00     0.199 HD  
ATOM     21  H12 UNL     1       0.307  -3.276  -1.256  1.00  0.00     0.199 HD  
BRANCH  19  22
ATOM     22  C11 UNL     1       0.345  -2.409  -3.131  1.00  0.00     0.164 C   
BRANCH  22  23
ATOM     23  C12 UNL     1       0.987  -1.103  -2.758  1.00  0.00    -0.002 A   
ATOM     24  C13 UNL     1       2.145  -1.077  -1.942  1.00  0.00     0.012 A   
ATOM     25  C17 UNL     1       0.404   0.110  -3.164  1.00  0.00     0.045 A   
ATOM     26  C14 UNL     1       2.695   0.135  -1.510  1.00  0.00     0.037 A   
ATOM     27  C16 UNL     1       0.966   1.287  -2.711  1.00  0.00     0.109 A   
ATOM     28  C15 UNL     1       2.076   1.300  -1.904  1.00  0.00     0.108 A   
ATOM     29  O3  UNL     1       0.496   2.536  -2.972  1.00  0.00    -0.316 OA  
ATOM     30  O4  UNL     1       2.448   2.559  -1.555  1.00  0.00    -0.316 OA  
ATOM     31  C18 UNL     1       1.448   3.344  -2.242  1.00  0.00     0.337 C   
ENDBRANCH  22  23
ENDBRANCH  19  22
ENDBRANCH  18  19
BRANCH  18  32
ATOM     32  C19 UNL     1      -2.593  -3.325  -0.934  1.00  0.00     0.043 C   
ATOM     33  C20 UNL     1      -2.196  -4.380   0.100  1.00  0.00     0.010 C   
ATOM     34  C23 UNL     1      -3.832  -2.698  -0.291  1.00  0.00     0.010 C   
ATOM     35  C21 UNL     1      -3.530  -4.977   0.539  1.00  0.00     0.001 C   
ATOM     36  C22 UNL     1      -4.577  -3.884   0.319  1.00  0.00     0.001 C   
ENDBRANCH  18  32
ENDBRANCH   3  18
TORSDOF 10
