REMARK SMILES CCc1n[nH]c(C(C)C)c1Cn1cc([C@H](CC(C)C)[NH2+]Cc2ccc3c(c2)OCO3)nn1
REMARK SMILES IDX 12 1 13 2 14 3 31 4 32 5 11 7 10 8 3 9 4 10 5 11 6 12 2 14
REMARK SMILES IDX 1 15 7 16 8 17 9 18 15 19 16 20 17 21 18 22 19 23 20 24
REMARK SMILES IDX 21 27 22 28 23 29 27 30 24 31 26 32 25 33 28 34 30 35 29 36
REMARK H PARENT 13 6 5 13 20 25 20 26
ROOT
ATOM     1   N3  UNL     1       0.945   1.074   0.238  1.00  0.00    -0.208 N   
ATOM     2   C10 UNL     1       0.034   0.186   0.744  1.00  0.00     0.046 A   
ATOM     3   C11 UNL     1       0.776  -0.944   1.004  1.00  0.00     0.127 A   
ATOM     4   N5  UNL     1       2.084  -0.714   0.659  1.00  0.00    -0.132 NA  
ATOM     5   N6  UNL     1       2.176   0.523   0.199  1.00  0.00    -0.076 NA  
ATOM     6   H16 UNL     1      -1.012   0.433   0.858  1.00  0.00     0.083 HD  
ENDROOT
BRANCH   1   7
ATOM     7   C9  UNL     1       0.747   2.466  -0.138  1.00  0.00     0.173 C   
BRANCH   7   8
ATOM     8   C8  UNL     1      -0.292   2.602  -1.198  1.00  0.00     0.013 A   
ATOM     9   C3  UNL     1      -0.126   2.372  -2.596  1.00  0.00     0.065 A   
ATOM     10  N1  UNL     1      -1.262   2.579  -3.267  1.00  0.00    -0.189 NA  
ATOM     11  N2  UNL     1      -2.129   2.994  -2.339  1.00  0.00    -0.242 N   
ATOM     12  C4  UNL     1      -1.612   3.014  -1.071  1.00  0.00     0.034 A   
ATOM     13  H6  UNL     1      -3.063   3.255  -2.640  1.00  0.00     0.175 HD  
BRANCH   9  14
ATOM     14  C2  UNL     1       1.103   1.957  -3.338  1.00  0.00     0.055 C   
ATOM     15  C1  UNL     1       2.020   3.132  -3.643  1.00  0.00     0.011 C   
ENDBRANCH   9  14
BRANCH  12  16
ATOM     16  C5  UNL     1      -2.425   3.453   0.114  1.00  0.00     0.029 C   
ATOM     17  C6  UNL     1      -2.872   4.909  -0.032  1.00  0.00     0.014 C   
ATOM     18  C7  UNL     1      -3.624   2.532   0.340  1.00  0.00     0.014 C   
ENDBRANCH  12  16
ENDBRANCH   7   8
ENDBRANCH   1   7
BRANCH   3  19
ATOM     19  C12 UNL     1       0.390  -2.286   1.530  1.00  0.00     0.114 C   
BRANCH  19  20
ATOM     20  C13 UNL     1       0.554  -2.395   3.059  1.00  0.00     0.064 C   
BRANCH  20  21
ATOM     21  C14 UNL     1      -0.378  -1.486   3.890  1.00  0.00    -0.012 C   
ATOM     22  C15 UNL     1      -0.076  -1.665   5.381  1.00  0.00     0.007 C   
ATOM     23  C16 UNL     1      -1.858  -1.773   3.629  1.00  0.00     0.007 C   
ENDBRANCH  20  21
ENDBRANCH  19  20
BRANCH  19  24
ATOM     24  N4  UNL     1       1.286  -3.343   0.906  1.00  0.00     0.249 N   
ATOM     25  H27 UNL     1       2.125  -2.840   0.574  1.00  0.00     0.199 HD  
ATOM     26  H28 UNL     1       1.621  -4.002   1.616  1.00  0.00     0.199 HD  
BRANCH  24  27
ATOM     27  C17 UNL     1       0.711  -4.104  -0.236  1.00  0.00     0.164 C   
BRANCH  27  28
ATOM     28  C18 UNL     1       0.437  -3.264  -1.450  1.00  0.00    -0.002 A   
ATOM     29  C19 UNL     1       1.502  -2.858  -2.290  1.00  0.00     0.012 A   
ATOM     30  C23 UNL     1      -0.874  -2.853  -1.749  1.00  0.00     0.045 A   
ATOM     31  C20 UNL     1       1.265  -2.068  -3.420  1.00  0.00     0.037 A   
ATOM     32  C22 UNL     1      -1.071  -2.066  -2.865  1.00  0.00     0.109 A   
ATOM     33  C21 UNL     1      -0.033  -1.692  -3.681  1.00  0.00     0.108 A   
ATOM     34  O1  UNL     1      -2.268  -1.585  -3.290  1.00  0.00    -0.316 OA  
ATOM     35  O2  UNL     1      -0.445  -0.939  -4.732  1.00  0.00    -0.316 OA  
ATOM     36  C24 UNL     1      -1.863  -0.858  -4.475  1.00  0.00     0.337 C   
ENDBRANCH  27  28
ENDBRANCH  24  27
ENDBRANCH  19  24
ENDBRANCH   3  19
TORSDOF 10
