REMARK SMILES CC(C)C[C@H]([NH2+]Cc1ccc2c(c1)OCO2)c1cn(Cc2ccc(C(C)(F)F)cn2)nn1
REMARK SMILES IDX 17 1 18 2 19 3 31 4 32 5 5 7 4 8 2 9 1 10 3 11 6 12 7 15
REMARK SMILES IDX 8 16 9 17 13 18 10 19 12 20 11 21 14 22 16 23 15 24 20 25
REMARK SMILES IDX 21 26 22 27 30 28 23 29 29 30 24 31 25 32 26 33 27 34 28 35
REMARK H PARENT 18 6 6 13 6 14
ROOT
ATOM     1   C14 UNL     1       0.378  -0.582   1.715  1.00  0.00     0.127 A   
ATOM     2   C15 UNL     1      -0.019   0.726   1.558  1.00  0.00     0.046 A   
ATOM     3   N2  UNL     1      -0.857   0.948   2.618  1.00  0.00    -0.206 N   
ATOM     4   N4  UNL     1      -0.922  -0.140   3.412  1.00  0.00    -0.076 NA  
ATOM     5   N5  UNL     1      -0.185  -1.090   2.858  1.00  0.00    -0.132 NA  
ATOM     6   H20 UNL     1       0.177   1.486   0.813  1.00  0.00     0.083 HD  
ENDROOT
BRANCH   1   7
ATOM     7   C5  UNL     1       1.281  -1.439   0.889  1.00  0.00     0.114 C   
BRANCH   7   8
ATOM     8   C4  UNL     1       0.474  -2.206  -0.179  1.00  0.00     0.064 C   
BRANCH   8   9
ATOM     9   C2  UNL     1       1.290  -3.056  -1.177  1.00  0.00    -0.012 C   
ATOM     10  C1  UNL     1       0.339  -3.729  -2.172  1.00  0.00     0.007 C   
ATOM     11  C3  UNL     1       2.330  -2.232  -1.936  1.00  0.00     0.007 C   
ENDBRANCH   8   9
ENDBRANCH   7   8
BRANCH   7  12
ATOM     12  N1  UNL     1       2.007  -2.432   1.765  1.00  0.00     0.249 N   
ATOM     13  H11 UNL     1       1.285  -2.877   2.349  1.00  0.00     0.199 HD  
ATOM     14  H12 UNL     1       2.441  -3.167   1.202  1.00  0.00     0.199 HD  
BRANCH  12  15
ATOM     15  C6  UNL     1       3.039  -1.867   2.685  1.00  0.00     0.164 C   
BRANCH  15  16
ATOM     16  C7  UNL     1       4.251  -1.363   1.952  1.00  0.00    -0.002 A   
ATOM     17  C8  UNL     1       5.200  -2.273   1.425  1.00  0.00     0.012 A   
ATOM     18  C12 UNL     1       4.428   0.017   1.747  1.00  0.00     0.045 A   
ATOM     19  C9  UNL     1       6.306  -1.817   0.699  1.00  0.00     0.037 A   
ATOM     20  C11 UNL     1       5.526   0.432   1.023  1.00  0.00     0.109 A   
ATOM     21  C10 UNL     1       6.439  -0.458   0.514  1.00  0.00     0.108 A   
ATOM     22  O1  UNL     1       5.834   1.721   0.723  1.00  0.00    -0.316 OA  
ATOM     23  O2  UNL     1       7.439   0.159  -0.167  1.00  0.00    -0.316 OA  
ATOM     24  C13 UNL     1       7.065   1.544  -0.016  1.00  0.00     0.337 C   
ENDBRANCH  15  16
ENDBRANCH  12  15
ENDBRANCH   7  12
ENDBRANCH   1   7
BRANCH   3  25
ATOM     25  C16 UNL     1      -1.571   2.163   2.958  1.00  0.00     0.190 C   
BRANCH  25  26
ATOM     26  C17 UNL     1      -2.766   2.336   2.063  1.00  0.00     0.060 A   
ATOM     27  C18 UNL     1      -4.022   1.878   2.454  1.00  0.00     0.026 A   
ATOM     28  N3  UNL     1      -2.554   2.939   0.865  1.00  0.00    -0.259 NA  
ATOM     29  C19 UNL     1      -5.103   2.067   1.595  1.00  0.00     0.013 A   
ATOM     30  C23 UNL     1      -3.626   3.121   0.056  1.00  0.00     0.121 A   
ATOM     31  C20 UNL     1      -4.913   2.705   0.366  1.00  0.00     0.039 A   
BRANCH  31  32
ATOM     32  C21 UNL     1      -6.047   2.936  -0.595  1.00  0.00     0.271 C   
ATOM     33  C22 UNL     1      -6.298   1.714  -1.464  1.00  0.00     0.093 C   
ATOM     34  F1  UNL     1      -5.812   3.993  -1.425  1.00  0.00    -0.202 F   
ATOM     35  F2  UNL     1      -7.211   3.234   0.051  1.00  0.00    -0.202 F   
ENDBRANCH  31  32
ENDBRANCH  25  26
ENDBRANCH   3  25
TORSDOF 9
