REMARK SMILES CC(C)[C@H]([NH2+]Cc1ccc2c(c1)OCO2)c1cn(CCc2ccccc2N([O-])[O-])nn1
REMARK SMILES IDX 16 1 17 2 18 3 30 4 31 5 4 7 2 8 1 9 3 10 5 11 6 14 7 15
REMARK SMILES IDX 8 16 12 17 9 18 11 19 10 20 13 21 15 22 14 23 19 24 20 25
REMARK SMILES IDX 21 26 22 27 26 28 23 29 25 30 24 31 27 32 28 33 29 34
REMARK H PARENT 17 6 5 12 5 13
ROOT
ATOM     1   C13 UNL     1      -1.854   1.859   0.101  1.00  0.00     0.127 A   
ATOM     2   C14 UNL     1      -0.746   2.138  -0.671  1.00  0.00     0.045 A   
ATOM     3   N2  UNL     1      -0.330   3.355  -0.211  1.00  0.00    -0.212 N   
ATOM     4   N4  UNL     1      -1.166   3.831   0.725  1.00  0.00    -0.076 NA  
ATOM     5   N5  UNL     1      -2.102   2.921   0.932  1.00  0.00    -0.132 NA  
ATOM     6   H18 UNL     1      -0.188   1.568  -1.401  1.00  0.00     0.083 HD  
ENDROOT
BRANCH   1   7
ATOM     7   C4  UNL     1      -2.627   0.590   0.279  1.00  0.00     0.117 C   
BRANCH   7   8
ATOM     8   C2  UNL     1      -4.044   0.607  -0.343  1.00  0.00     0.037 C   
ATOM     9   C1  UNL     1      -3.978   0.795  -1.865  1.00  0.00     0.014 C   
ATOM     10  C3  UNL     1      -5.000   1.641   0.262  1.00  0.00     0.014 C   
ENDBRANCH   7   8
BRANCH   7  11
ATOM     11  N1  UNL     1      -2.674   0.299   1.759  1.00  0.00     0.249 N   
ATOM     12  H9  UNL     1      -3.177   1.067   2.222  1.00  0.00     0.199 HD  
ATOM     13  H10 UNL     1      -1.703   0.428   2.106  1.00  0.00     0.199 HD  
BRANCH  11  14
ATOM     14  C5  UNL     1      -3.151  -1.023   2.225  1.00  0.00     0.164 C   
BRANCH  14  15
ATOM     15  C6  UNL     1      -2.305  -2.164   1.727  1.00  0.00    -0.002 A   
ATOM     16  C7  UNL     1      -2.784  -3.022   0.709  1.00  0.00     0.012 A   
ATOM     17  C11 UNL     1      -1.011  -2.358   2.241  1.00  0.00     0.045 A   
ATOM     18  C8  UNL     1      -1.982  -4.051   0.201  1.00  0.00     0.037 A   
ATOM     19  C10 UNL     1      -0.244  -3.375   1.714  1.00  0.00     0.109 A   
ATOM     20  C9  UNL     1      -0.716  -4.199   0.723  1.00  0.00     0.108 A   
ATOM     21  O1  UNL     1       1.028  -3.679   2.081  1.00  0.00    -0.316 OA  
ATOM     22  O2  UNL     1       0.197  -5.131   0.346  1.00  0.00    -0.316 OA  
ATOM     23  C12 UNL     1       1.284  -4.833   1.247  1.00  0.00     0.337 C   
ENDBRANCH  14  15
ENDBRANCH  11  14
ENDBRANCH   7  11
ENDBRANCH   1   7
BRANCH   3  24
ATOM     24  C15 UNL     1       0.932   4.019  -0.461  1.00  0.00     0.139 C   
BRANCH  24  25
ATOM     25  C16 UNL     1       1.960   3.737   0.644  1.00  0.00     0.059 C   
BRANCH  25  26
ATOM     26  C17 UNL     1       2.481   2.312   0.637  1.00  0.00    -0.018 A   
ATOM     27  C18 UNL     1       3.448   1.973  -0.328  1.00  0.00     0.006 A   
ATOM     28  C22 UNL     1       2.047   1.284   1.500  1.00  0.00     0.121 A   
ATOM     29  C19 UNL     1       3.948   0.671  -0.427  1.00  0.00     0.000 A   
ATOM     30  C21 UNL     1       2.542  -0.027   1.400  1.00  0.00     0.031 A   
ATOM     31  C20 UNL     1       3.495  -0.328   0.432  1.00  0.00     0.002 A   
BRANCH  28  32
ATOM     32  N3  UNL     1       1.039   1.512   2.524  1.00  0.00     0.092 N   
ATOM     33  O3  UNL     1      -0.011   0.843   2.442  1.00  0.00    -0.138 OA  
ATOM     34  O4  UNL     1       1.293   2.329   3.414  1.00  0.00    -0.138 OA  
ENDBRANCH  28  32
ENDBRANCH  25  26
ENDBRANCH  24  25
ENDBRANCH   3  24
TORSDOF 9
