REMARK SMILES CC(C)(C)[C@H]([NH2+]Cc1ccc2c(c1)OCO2)c1cn(Cc2c(F)ccc(F)c2F)nn1
REMARK SMILES IDX 17 1 18 2 19 3 30 4 31 5 5 7 2 8 1 9 3 10 4 11 6 12 7 15
REMARK SMILES IDX 8 16 9 17 13 18 10 19 12 20 11 21 14 22 16 23 15 24 20 25
REMARK SMILES IDX 21 26 22 27 28 28 24 29 26 30 25 31 23 32 29 33 27 34
REMARK H PARENT 18 6 6 13 6 14
ROOT
ATOM     1   C14 UNL     1      -0.024  -0.258  -0.765  1.00  0.00     0.127 A   
ATOM     2   C15 UNL     1      -1.118  -1.028  -1.092  1.00  0.00     0.046 A   
ATOM     3   N2  UNL     1      -0.970  -2.156  -0.330  1.00  0.00    -0.208 N   
ATOM     4   N3  UNL     1       0.141  -2.078   0.429  1.00  0.00    -0.076 NA  
ATOM     5   N4  UNL     1       0.728  -0.921   0.172  1.00  0.00    -0.132 NA  
ATOM     6   H20 UNL     1      -1.959  -0.885  -1.755  1.00  0.00     0.083 HD  
ENDROOT
BRANCH   1   7
ATOM     7   C5  UNL     1       0.379   1.124  -1.186  1.00  0.00     0.120 C   
BRANCH   7   8
ATOM     8   C2  UNL     1       1.352   1.164  -2.417  1.00  0.00     0.010 C   
ATOM     9   C1  UNL     1       0.729   0.414  -3.616  1.00  0.00     0.017 C   
ATOM     10  C3  UNL     1       2.724   0.532  -2.111  1.00  0.00     0.017 C   
ATOM     11  C4  UNL     1       1.581   2.625  -2.872  1.00  0.00     0.017 C   
ENDBRANCH   7   8
BRANCH   7  12
ATOM     12  N1  UNL     1       1.004   1.821  -0.000  1.00  0.00     0.250 N   
ATOM     13  H11 UNL     1       1.649   1.141   0.433  1.00  0.00     0.199 HD  
ATOM     14  H12 UNL     1       1.580   2.623  -0.272  1.00  0.00     0.199 HD  
BRANCH  12  15
ATOM     15  C6  UNL     1       0.054   2.255   1.062  1.00  0.00     0.164 C   
BRANCH  15  16
ATOM     16  C7  UNL     1       0.806   2.847   2.220  1.00  0.00    -0.002 A   
ATOM     17  C8  UNL     1       1.281   2.011   3.259  1.00  0.00     0.012 A   
ATOM     18  C12 UNL     1       1.097   4.221   2.248  1.00  0.00     0.045 A   
ATOM     19  C9  UNL     1       2.028   2.536   4.319  1.00  0.00     0.037 A   
ATOM     20  C11 UNL     1       1.839   4.706   3.306  1.00  0.00     0.109 A   
ATOM     21  C10 UNL     1       2.291   3.888   4.311  1.00  0.00     0.108 A   
ATOM     22  O1  UNL     1       2.210   6.001   3.482  1.00  0.00    -0.316 OA  
ATOM     23  O2  UNL     1       3.001   4.565   5.249  1.00  0.00    -0.316 OA  
ATOM     24  C13 UNL     1       2.934   5.910   4.730  1.00  0.00     0.337 C   
ENDBRANCH  15  16
ENDBRANCH  12  15
ENDBRANCH   7  12
ENDBRANCH   1   7
BRANCH   3  25
ATOM     25  C16 UNL     1      -1.846  -3.314  -0.260  1.00  0.00     0.175 C   
BRANCH  25  26
ATOM     26  C17 UNL     1      -2.511  -3.428   1.081  1.00  0.00     0.046 A   
ATOM     27  C18 UNL     1      -2.288  -4.537   1.899  1.00  0.00     0.131 A   
ATOM     28  C22 UNL     1      -3.375  -2.437   1.548  1.00  0.00     0.166 A   
ATOM     29  C19 UNL     1      -2.893  -4.655   3.151  1.00  0.00     0.043 A   
ATOM     30  C21 UNL     1      -3.977  -2.541   2.800  1.00  0.00     0.159 A   
ATOM     31  C20 UNL     1      -3.740  -3.647   3.609  1.00  0.00     0.045 A   
ATOM     32  F1  UNL     1      -1.481  -5.518   1.479  1.00  0.00    -0.207 F   
ATOM     33  F3  UNL     1      -3.619  -1.360   0.784  1.00  0.00    -0.203 F   
ATOM     34  F2  UNL     1      -4.789  -1.569   3.232  1.00  0.00    -0.204 F   
ENDBRANCH  25  26
ENDBRANCH   3  25
TORSDOF 7
