REMARK SMILES CC(C)c1ncc(Cn2cc([C@@H]([NH2+]Cc3ccc4c(c3)OCO4)C(C)C)nn2)cn1
REMARK SMILES IDX 9 1 10 2 11 3 27 4 28 5 8 7 7 8 4 9 5 10 30 11 6 12 29 13
REMARK SMILES IDX 2 14 1 15 3 16 12 17 13 18 14 21 15 22 16 23 20 24 17 25
REMARK SMILES IDX 19 26 18 27 21 28 23 29 22 30 24 31 25 32 26 33
REMARK H PARENT 10 6 13 19 13 20
ROOT
ATOM     1   N2  UNL     1       2.037   1.821   2.480  1.00  0.00    -0.208 N   
ATOM     2   C8  UNL     1       1.170   2.544   1.706  1.00  0.00     0.046 A   
ATOM     3   C9  UNL     1      -0.052   1.948   1.930  1.00  0.00     0.127 A   
ATOM     4   N4  UNL     1       0.108   0.918   2.823  1.00  0.00    -0.132 NA  
ATOM     5   N5  UNL     1       1.389   0.846   3.145  1.00  0.00    -0.076 NA  
ATOM     6   H11 UNL     1       1.495   3.364   1.080  1.00  0.00     0.083 HD  
ENDROOT
BRANCH   1   7
ATOM     7   C7  UNL     1       3.480   1.958   2.589  1.00  0.00     0.172 C   
BRANCH   7   8
ATOM     8   C6  UNL     1       4.154   1.336   1.411  1.00  0.00     0.008 A   
ATOM     9   C4  UNL     1       5.307   0.203  -0.777  1.00  0.00     0.130 A   
ATOM     10  N1  UNL     1       4.765  -0.614   0.146  1.00  0.00    -0.241 NA  
ATOM     11  N6  UNL     1       5.298   1.548  -0.690  1.00  0.00    -0.241 NA  
ATOM     12  C5  UNL     1       4.209  -0.029   1.223  1.00  0.00     0.120 A   
ATOM     13  C22 UNL     1       4.731   2.083   0.406  1.00  0.00     0.120 A   
BRANCH   9  14
ATOM     14  C2  UNL     1       5.947  -0.439  -1.988  1.00  0.00     0.051 C   
ATOM     15  C1  UNL     1       7.417  -0.039  -2.109  1.00  0.00     0.016 C   
ATOM     16  C3  UNL     1       5.174  -0.086  -3.258  1.00  0.00     0.016 C   
ENDBRANCH   9  14
ENDBRANCH   7   8
ENDBRANCH   1   7
BRANCH   3  17
ATOM     17  C10 UNL     1      -1.406   2.215   1.349  1.00  0.00     0.117 C   
BRANCH  17  18
ATOM     18  N3  UNL     1      -2.254   0.974   1.404  1.00  0.00     0.249 N   
ATOM     19  H13 UNL     1      -3.254   1.183   1.332  1.00  0.00     0.199 HD  
ATOM     20  H14 UNL     1      -2.113   0.557   2.337  1.00  0.00     0.199 HD  
BRANCH  18  21
ATOM     21  C11 UNL     1      -1.909  -0.077   0.405  1.00  0.00     0.164 C   
BRANCH  21  22
ATOM     22  C12 UNL     1      -2.758  -1.298   0.620  1.00  0.00    -0.002 A   
ATOM     23  C13 UNL     1      -2.343  -2.298   1.531  1.00  0.00     0.012 A   
ATOM     24  C17 UNL     1      -3.994  -1.427  -0.036  1.00  0.00     0.045 A   
ATOM     25  C14 UNL     1      -3.143  -3.420   1.779  1.00  0.00     0.037 A   
ATOM     26  C16 UNL     1      -4.757  -2.544   0.232  1.00  0.00     0.109 A   
ATOM     27  C15 UNL     1      -4.344  -3.513   1.113  1.00  0.00     0.108 A   
ATOM     28  O1  UNL     1      -5.971  -2.820  -0.313  1.00  0.00    -0.316 OA  
ATOM     29  O2  UNL     1      -5.245  -4.522   1.233  1.00  0.00    -0.316 OA  
ATOM     30  C18 UNL     1      -6.267  -4.093   0.307  1.00  0.00     0.337 C   
ENDBRANCH  21  22
ENDBRANCH  18  21
ENDBRANCH  17  18
BRANCH  17  31
ATOM     31  C19 UNL     1      -2.125   3.392   2.059  1.00  0.00     0.037 C   
ATOM     32  C20 UNL     1      -2.536   3.089   3.505  1.00  0.00     0.014 C   
ATOM     33  C21 UNL     1      -3.346   3.871   1.265  1.00  0.00     0.014 C   
ENDBRANCH  17  31
ENDBRANCH   3  17
TORSDOF 8
