REMARK SMILES COc1ccc(N)cc1-n1cc([C@@H]([NH2+]Cc2ccc3c(c2)OCO3)C(C)C)nn1
REMARK SMILES IDX 10 1 11 2 12 3 28 4 29 5 9 6 3 7 4 8 5 9 8 10 6 11 2 12 1 13
REMARK SMILES IDX 7 14 13 17 14 18 15 21 16 22 17 23 21 24 18 25 20 26 19 27
REMARK SMILES IDX 22 28 24 29 23 30 25 31 26 32 27 33
REMARK H PARENT 7 15 7 16 14 19 14 20
ROOT
ATOM     1   N2  UNL     1      -1.157   1.645   0.914  1.00  0.00    -0.178 N   
ATOM     2   C8  UNL     1       0.195   1.495   1.173  1.00  0.00     0.135 A   
ATOM     3   C9  UNL     1       0.736   0.955   0.028  1.00  0.00     0.127 A   
ATOM     4   N4  UNL     1      -0.258   0.756  -0.883  1.00  0.00    -0.131 NA  
ATOM     5   N5  UNL     1      -1.393   1.160  -0.341  1.00  0.00    -0.071 NA  
ENDROOT
BRANCH   1   6
ATOM     6   C7  UNL     1      -2.217   2.161   1.714  1.00  0.00     0.090 A   
ATOM     7   C2  UNL     1      -2.027   2.704   3.000  1.00  0.00     0.098 A   
ATOM     8   C3  UNL     1      -3.153   3.135   3.716  1.00  0.00     0.037 A   
ATOM     9   C4  UNL     1      -4.436   3.060   3.165  1.00  0.00     0.026 A   
ATOM     10  C6  UNL     1      -3.522   2.105   1.173  1.00  0.00     0.051 A   
ATOM     11  C5  UNL     1      -4.627   2.596   1.869  1.00  0.00     0.025 A   
BRANCH   7  12
ATOM     12  O1  UNL     1      -0.759   2.777   3.505  1.00  0.00    -0.347 OA  
ATOM     13  C1  UNL     1      -0.570   3.425   4.761  1.00  0.00     0.203 C   
ENDBRANCH   7  12
BRANCH  11  14
ATOM     14  N1  UNL     1      -5.917   2.409   1.369  1.00  0.00    -0.358 N   
ATOM     15  H6  UNL     1      -6.619   3.025   1.771  1.00  0.00     0.143 HD  
ATOM     16  H7  UNL     1      -5.980   2.374   0.356  1.00  0.00     0.143 HD  
ENDBRANCH  11  14
ENDBRANCH   1   6
BRANCH   3  17
ATOM     17  C10 UNL     1       2.132   0.534  -0.299  1.00  0.00     0.117 C   
BRANCH  17  18
ATOM     18  N3  UNL     1       2.107  -0.631  -1.258  1.00  0.00     0.249 N   
ATOM     19  H11 UNL     1       1.413  -0.406  -1.987  1.00  0.00     0.199 HD  
ATOM     20  H12 UNL     1       3.005  -0.742  -1.739  1.00  0.00     0.199 HD  
BRANCH  18  21
ATOM     21  C11 UNL     1       1.708  -1.938  -0.664  1.00  0.00     0.164 C   
BRANCH  21  22
ATOM     22  C12 UNL     1       1.659  -3.001  -1.724  1.00  0.00    -0.002 A   
ATOM     23  C13 UNL     1       0.474  -3.204  -2.472  1.00  0.00     0.012 A   
ATOM     24  C17 UNL     1       2.803  -3.762  -2.018  1.00  0.00     0.045 A   
ATOM     25  C14 UNL     1       0.423  -4.161  -3.491  1.00  0.00     0.037 A   
ATOM     26  C16 UNL     1       2.718  -4.696  -3.030  1.00  0.00     0.109 A   
ATOM     27  C15 UNL     1       1.563  -4.891  -3.745  1.00  0.00     0.108 A   
ATOM     28  O2  UNL     1       3.726  -5.511  -3.438  1.00  0.00    -0.316 OA  
ATOM     29  O3  UNL     1       1.696  -5.855  -4.693  1.00  0.00    -0.316 OA  
ATOM     30  C18 UNL     1       3.064  -6.263  -4.481  1.00  0.00     0.337 C   
ENDBRANCH  21  22
ENDBRANCH  18  21
ENDBRANCH  17  18
BRANCH  17  31
ATOM     31  C19 UNL     1       3.007   1.655  -0.916  1.00  0.00     0.037 C   
ATOM     32  C20 UNL     1       3.264   2.788   0.084  1.00  0.00     0.014 C   
ATOM     33  C21 UNL     1       2.458   2.234  -2.225  1.00  0.00     0.014 C   
ENDBRANCH  17  31
ENDBRANCH   3  17
TORSDOF 8
