REMARK SMILES Cc1cc(F)ccc1Cn1cc([C@@H]([NH2+]Cc2ccc3c(c2)OCO3)C(C)(C)C)nn1
REMARK SMILES IDX 10 1 11 2 12 3 29 4 30 5 9 7 8 8 2 9 3 10 4 11 7 12 6 13
REMARK SMILES IDX 1 14 5 15 13 16 14 17 15 20 16 21 17 22 21 23 18 24 20 25
REMARK SMILES IDX 19 26 22 27 24 28 23 29 25 30 26 31 27 32 28 33
REMARK H PARENT 11 6 14 18 14 19
ROOT
ATOM     1   N1  UNL     1      -1.867  -0.395  -1.099  1.00  0.00    -0.208 N   
ATOM     2   C9  UNL     1      -0.611   0.107  -1.310  1.00  0.00     0.046 A   
ATOM     3   C10 UNL     1       0.220  -0.968  -1.090  1.00  0.00     0.127 A   
ATOM     4   N3  UNL     1      -0.538  -2.060  -0.750  1.00  0.00    -0.132 NA  
ATOM     5   N4  UNL     1      -1.810  -1.703  -0.776  1.00  0.00    -0.076 NA  
ATOM     6   H9  UNL     1      -0.436   1.139  -1.581  1.00  0.00     0.083 HD  
ENDROOT
BRANCH   1   7
ATOM     7   C8  UNL     1      -3.152   0.268  -1.265  1.00  0.00     0.169 C   
BRANCH   7   8
ATOM     8   C7  UNL     1      -3.271   1.509  -0.406  1.00  0.00    -0.025 A   
ATOM     9   C2  UNL     1      -3.612   1.447   0.963  1.00  0.00    -0.043 A   
ATOM     10  C3  UNL     1      -3.702   2.638   1.700  1.00  0.00     0.043 A   
ATOM     11  C4  UNL     1      -3.445   3.862   1.096  1.00  0.00     0.123 A   
ATOM     12  C6  UNL     1      -3.023   2.766  -0.996  1.00  0.00     0.009 A   
ATOM     13  C5  UNL     1      -3.107   3.938  -0.245  1.00  0.00     0.039 A   
ATOM     14  C1  UNL     1      -3.921   0.148   1.657  1.00  0.00     0.045 C   
ATOM     15  F1  UNL     1      -3.516   4.985   1.822  1.00  0.00    -0.207 F   
ENDBRANCH   7   8
ENDBRANCH   1   7
BRANCH   3  16
ATOM     16  C11 UNL     1       1.714  -1.091  -1.096  1.00  0.00     0.120 C   
BRANCH  16  17
ATOM     17  N2  UNL     1       2.110  -2.068  -0.002  1.00  0.00     0.250 N   
ATOM     18  H11 UNL     1       1.253  -2.605   0.215  1.00  0.00     0.199 HD  
ATOM     19  H12 UNL     1       2.776  -2.765  -0.341  1.00  0.00     0.199 HD  
BRANCH  17  20
ATOM     20  C12 UNL     1       2.623  -1.475   1.264  1.00  0.00     0.164 C   
BRANCH  20  21
ATOM     21  C13 UNL     1       1.626  -0.609   1.980  1.00  0.00    -0.002 A   
ATOM     22  C14 UNL     1       0.504  -1.187   2.620  1.00  0.00     0.012 A   
ATOM     23  C18 UNL     1       1.786   0.787   1.999  1.00  0.00     0.045 A   
ATOM     24  C15 UNL     1      -0.445  -0.390   3.269  1.00  0.00     0.037 A   
ATOM     25  C17 UNL     1       0.829   1.544   2.642  1.00  0.00     0.109 A   
ATOM     26  C16 UNL     1      -0.255   0.973   3.260  1.00  0.00     0.108 A   
ATOM     27  O1  UNL     1       0.829   2.898   2.741  1.00  0.00    -0.316 OA  
ATOM     28  O2  UNL     1      -1.072   1.896   3.832  1.00  0.00    -0.316 OA  
ATOM     29  C19 UNL     1      -0.355   3.115   3.542  1.00  0.00     0.337 C   
ENDBRANCH  20  21
ENDBRANCH  17  20
ENDBRANCH  16  17
BRANCH  16  30
ATOM     30  C20 UNL     1       2.318  -1.533  -2.474  1.00  0.00     0.010 C   
ATOM     31  C21 UNL     1       1.835  -2.929  -2.917  1.00  0.00     0.017 C   
ATOM     32  C22 UNL     1       1.930  -0.519  -3.574  1.00  0.00     0.017 C   
ATOM     33  C23 UNL     1       3.863  -1.546  -2.401  1.00  0.00     0.017 C   
ENDBRANCH  16  30
ENDBRANCH   3  16
TORSDOF 7
