REMARK SMILES c1cc2cc[nH]c2c(-n2cc([C@@H]([NH2+]Cc3ccc4c(c3)OCO4)C3CCCC3)nn2)n1
REMARK SMILES IDX 12 1 11 2 9 3 10 4 30 5 29 6 8 7 1 8 2 9 31 10 3 11 4 12
REMARK SMILES IDX 7 13 5 14 6 15 13 17 14 20 15 21 16 22 20 23 17 24 19 25
REMARK SMILES IDX 18 26 21 27 23 28 22 29 24 30 25 31 28 32 26 33 27 34
REMARK H PARENT 6 16 13 18 13 19
ROOT
ATOM     1   C10 UNL     1       1.456   0.370   0.444  1.00  0.00     0.117 C   
ENDROOT
BRANCH   1   2
ATOM     2   C9  UNL     1       0.113   0.640   1.044  1.00  0.00     0.128 A   
ATOM     3   N2  UNL     1      -1.653   0.960   2.292  1.00  0.00    -0.160 N   
ATOM     4   C8  UNL     1      -0.320   0.602   2.348  1.00  0.00     0.137 A   
ATOM     5   N5  UNL     1      -2.008   1.152   0.993  1.00  0.00    -0.069 NA  
ATOM     6   N4  UNL     1      -0.942   0.960   0.230  1.00  0.00    -0.131 NA  
BRANCH   3   7
ATOM     7   C7  UNL     1      -2.542   1.105   3.380  1.00  0.00     0.168 A   
ATOM     8   C1  UNL     1      -2.925   0.972   5.689  1.00  0.00     0.114 A   
ATOM     9   C2  UNL     1      -4.244   1.388   5.598  1.00  0.00     0.030 A   
ATOM     10  N6  UNL     1      -2.087   0.829   4.637  1.00  0.00    -0.237 NA  
ATOM     11  C3  UNL     1      -4.726   1.677   4.315  1.00  0.00     0.002 A   
ATOM     12  C4  UNL     1      -5.975   2.134   3.813  1.00  0.00     0.025 A   
ATOM     13  C6  UNL     1      -3.868   1.526   3.223  1.00  0.00     0.080 A   
ATOM     14  C5  UNL     1      -5.858   2.253   2.447  1.00  0.00     0.073 A   
ATOM     15  N1  UNL     1      -4.589   1.879   2.100  1.00  0.00    -0.318 N   
ATOM     16  H5  UNL     1      -4.217   1.876   1.157  1.00  0.00     0.152 HD  
ENDBRANCH   3   7
ENDBRANCH   1   2
BRANCH   1  17
ATOM     17  N3  UNL     1       1.284  -0.376  -0.856  1.00  0.00     0.249 N   
ATOM     18  H8  UNL     1       0.513   0.082  -1.367  1.00  0.00     0.199 HD  
ATOM     19  H9  UNL     1       2.108  -0.292  -1.456  1.00  0.00     0.199 HD  
BRANCH  17  20
ATOM     20  C11 UNL     1       0.942  -1.819  -0.719  1.00  0.00     0.164 C   
BRANCH  20  21
ATOM     21  C12 UNL     1       0.677  -2.428  -2.066  1.00  0.00    -0.002 A   
ATOM     22  C13 UNL     1      -0.650  -2.566  -2.539  1.00  0.00     0.012 A   
ATOM     23  C17 UNL     1       1.749  -2.821  -2.887  1.00  0.00     0.045 A   
ATOM     24  C14 UNL     1      -0.908  -3.101  -3.806  1.00  0.00     0.037 A   
ATOM     25  C16 UNL     1       1.458  -3.339  -4.131  1.00  0.00     0.109 A   
ATOM     26  C15 UNL     1       0.168  -3.474  -4.580  1.00  0.00     0.108 A   
ATOM     27  O1  UNL     1       2.374  -3.765  -5.040  1.00  0.00    -0.316 OA  
ATOM     28  O2  UNL     1       0.109  -4.009  -5.827  1.00  0.00    -0.316 OA  
ATOM     29  C18 UNL     1       1.511  -4.183  -6.121  1.00  0.00     0.337 C   
ENDBRANCH  20  21
ENDBRANCH  17  20
ENDBRANCH   1  17
BRANCH   1  30
ATOM     30  C19 UNL     1       2.232   1.672   0.162  1.00  0.00     0.043 C   
ATOM     31  C20 UNL     1       2.520   2.497   1.422  1.00  0.00     0.010 C   
ATOM     32  C23 UNL     1       3.645   1.454  -0.397  1.00  0.00     0.010 C   
ATOM     33  C21 UNL     1       3.589   3.480   0.970  1.00  0.00     0.001 C   
ATOM     34  C22 UNL     1       4.412   2.736  -0.078  1.00  0.00     0.001 C   
ENDBRANCH   1  30
TORSDOF 6
