REMARK SMILES c1cc2c(cc1C[NH2+][C@H](c1cn(-c3ccc4c(c3)NCCC4)nn1)C1CCCC1)OCO2
REMARK SMILES IDX 9 1 8 2 7 5 6 6 1 7 2 8 3 9 5 10 4 11 32 12 30 13 31 14
REMARK SMILES IDX 10 15 11 16 24 17 12 18 23 19 13 20 14 21 18 22 15 23 17 24
REMARK SMILES IDX 16 25 19 26 22 27 20 28 21 29 25 31 26 32 29 33 27 34 28 35
REMARK H PARENT 8 3 8 4 19 30
ROOT
ATOM     1   C8  UNL     1      -1.755  -0.974  -1.574  1.00  0.00     0.117 C   
ENDROOT
BRANCH   1   2
ATOM     2   N1  UNL     1      -1.084  -0.743  -2.917  1.00  0.00     0.249 N   
ATOM     3   H6  UNL     1      -1.464  -1.368  -3.632  1.00  0.00     0.199 HD  
ATOM     4   H7  UNL     1      -0.100  -1.035  -2.796  1.00  0.00     0.199 HD  
BRANCH   2   5
ATOM     5   C7  UNL     1      -1.098   0.656  -3.443  1.00  0.00     0.164 C   
BRANCH   5   6
ATOM     6   C6  UNL     1      -0.472   1.671  -2.527  1.00  0.00    -0.002 A   
ATOM     7   C1  UNL     1      -1.278   2.629  -1.865  1.00  0.00     0.012 A   
ATOM     8   C2  UNL     1      -0.723   3.524  -0.944  1.00  0.00     0.037 A   
ATOM     9   C3  UNL     1       0.630   3.443  -0.702  1.00  0.00     0.108 A   
ATOM     10  C5  UNL     1       0.912   1.646  -2.277  1.00  0.00     0.045 A   
ATOM     11  C4  UNL     1       1.425   2.535  -1.355  1.00  0.00     0.109 A   
ATOM     12  O2  UNL     1       1.328   4.204   0.180  1.00  0.00    -0.316 OA  
ATOM     13  O1  UNL     1       2.724   2.610  -0.968  1.00  0.00    -0.316 OA  
ATOM     14  C25 UNL     1       2.661   3.670   0.013  1.00  0.00     0.337 C   
ENDBRANCH   5   6
ENDBRANCH   2   5
ENDBRANCH   1   2
BRANCH   1  15
ATOM     15  C9  UNL     1      -0.724  -0.826  -0.502  1.00  0.00     0.127 A   
ATOM     16  C10 UNL     1      -0.701  -0.062   0.643  1.00  0.00     0.135 A   
ATOM     17  N5  UNL     1       0.493  -1.423  -0.669  1.00  0.00    -0.131 NA  
ATOM     18  N2  UNL     1       0.598  -0.156   1.107  1.00  0.00    -0.181 N   
ATOM     19  N4  UNL     1       1.280  -1.027   0.316  1.00  0.00    -0.071 NA  
BRANCH  18  20
ATOM     20  C11 UNL     1       1.219   0.548   2.166  1.00  0.00     0.059 A   
ATOM     21  C12 UNL     1       0.499   1.454   2.950  1.00  0.00     0.026 A   
ATOM     22  C16 UNL     1       2.591   0.363   2.404  1.00  0.00     0.049 A   
ATOM     23  C13 UNL     1       1.154   2.181   3.946  1.00  0.00     0.007 A   
ATOM     24  C15 UNL     1       3.249   1.067   3.421  1.00  0.00     0.031 A   
ATOM     25  C14 UNL     1       2.528   2.013   4.167  1.00  0.00    -0.027 A   
ATOM     26  N3  UNL     1       4.638   0.924   3.558  1.00  0.00    -0.344 N   
ATOM     27  C19 UNL     1       3.206   2.816   5.250  1.00  0.00     0.039 C   
ATOM     28  C17 UNL     1       5.218   1.425   4.799  1.00  0.00     0.102 C   
ATOM     29  C18 UNL     1       4.721   2.835   5.077  1.00  0.00     0.024 C   
ATOM     30  H13 UNL     1       4.960  -0.009   3.314  1.00  0.00     0.147 HD  
ENDBRANCH  18  20
ENDBRANCH   1  15
BRANCH   1  31
ATOM     31  C20 UNL     1      -2.396  -2.374  -1.572  1.00  0.00     0.043 C   
ATOM     32  C21 UNL     1      -3.135  -2.698  -0.269  1.00  0.00     0.010 C   
ATOM     33  C24 UNL     1      -3.506  -2.557  -2.613  1.00  0.00     0.010 C   
ATOM     34  C22 UNL     1      -3.991  -3.903  -0.630  1.00  0.00     0.001 C   
ATOM     35  C23 UNL     1      -4.354  -3.720  -2.101  1.00  0.00     0.001 C   
ENDBRANCH   1  31
TORSDOF 6
