REMARK SMILES CC(C)C[C@H]([NH2+]Cc1ccc2c(c1)OCO2)c1cn(Cc2c[nH]nc2C(F)(F)F)nn1
REMARK SMILES IDX 17 1 18 2 19 3 30 4 31 5 5 7 4 8 2 9 1 10 3 11 6 12 7 15
REMARK SMILES IDX 8 16 9 17 13 18 10 19 12 20 11 21 14 22 16 23 15 24 20 25
REMARK SMILES IDX 21 26 22 27 25 28 23 29 24 30 26 32 27 33 28 34 29 35
REMARK H PARENT 18 6 6 13 6 14 23 31
ROOT
ATOM     1   C14 UNL     1       0.407   0.499   0.312  1.00  0.00     0.127 A   
ATOM     2   C15 UNL     1       1.567   1.157  -0.032  1.00  0.00     0.046 A   
ATOM     3   N2  UNL     1       1.550   1.165  -1.399  1.00  0.00    -0.208 N   
ATOM     4   N5  UNL     1       0.400   0.642  -1.864  1.00  0.00    -0.076 NA  
ATOM     5   N6  UNL     1      -0.299   0.210  -0.828  1.00  0.00    -0.132 NA  
ATOM     6   H20 UNL     1       2.387   1.564   0.543  1.00  0.00     0.083 HD  
ENDROOT
BRANCH   1   7
ATOM     7   C5  UNL     1      -0.157   0.119   1.640  1.00  0.00     0.114 C   
BRANCH   7   8
ATOM     8   C4  UNL     1       0.211  -1.321   2.049  1.00  0.00     0.064 C   
BRANCH   8   9
ATOM     9   C2  UNL     1       1.715  -1.583   2.273  1.00  0.00    -0.012 C   
ATOM     10  C1  UNL     1       2.305  -0.698   3.370  1.00  0.00     0.007 C   
ATOM     11  C3  UNL     1       1.934  -3.057   2.625  1.00  0.00     0.007 C   
ENDBRANCH   8   9
ENDBRANCH   7   8
BRANCH   7  12
ATOM     12  N1  UNL     1      -1.666   0.186   1.592  1.00  0.00     0.249 N   
ATOM     13  H11 UNL     1      -2.088  -0.355   2.354  1.00  0.00     0.199 HD  
ATOM     14  H12 UNL     1      -1.957  -0.277   0.717  1.00  0.00     0.199 HD  
BRANCH  12  15
ATOM     15  C6  UNL     1      -2.244   1.557   1.587  1.00  0.00     0.164 C   
BRANCH  15  16
ATOM     16  C7  UNL     1      -3.743   1.492   1.520  1.00  0.00    -0.002 A   
ATOM     17  C8  UNL     1      -4.512   1.407   2.704  1.00  0.00     0.012 A   
ATOM     18  C12 UNL     1      -4.386   1.454   0.271  1.00  0.00     0.045 A   
ATOM     19  C9  UNL     1      -5.905   1.289   2.647  1.00  0.00     0.037 A   
ATOM     20  C11 UNL     1      -5.761   1.342   0.251  1.00  0.00     0.109 A   
ATOM     21  C10 UNL     1      -6.499   1.258   1.405  1.00  0.00     0.108 A   
ATOM     22  O1  UNL     1      -6.534   1.289  -0.864  1.00  0.00    -0.316 OA  
ATOM     23  O2  UNL     1      -7.830   1.141   1.162  1.00  0.00    -0.316 OA  
ATOM     24  C13 UNL     1      -7.852   1.183  -0.281  1.00  0.00     0.337 C   
ENDBRANCH  15  16
ENDBRANCH  12  15
ENDBRANCH   7  12
ENDBRANCH   1   7
BRANCH   3  25
ATOM     25  C16 UNL     1       2.571   1.658  -2.311  1.00  0.00     0.173 C   
BRANCH  25  26
ATOM     26  C17 UNL     1       3.482   0.552  -2.731  1.00  0.00     0.019 A   
ATOM     27  C18 UNL     1       3.434  -0.163  -3.910  1.00  0.00     0.099 A   
ATOM     28  C19 UNL     1       4.596  -0.007  -2.021  1.00  0.00     0.168 A   
ATOM     29  N3  UNL     1       4.450  -1.069  -3.862  1.00  0.00    -0.245 N   
ATOM     30  N4  UNL     1       5.157  -1.009  -2.725  1.00  0.00    -0.179 NA  
ATOM     31  H24 UNL     1       4.714  -1.759  -4.560  1.00  0.00     0.175 HD  
BRANCH  28  32
ATOM     32  C20 UNL     1       5.106   0.392  -0.658  1.00  0.00     0.435 C   
ATOM     33  F1  UNL     1       4.938   1.729  -0.443  1.00  0.00    -0.164 F   
ATOM     34  F2  UNL     1       6.417   0.124  -0.449  1.00  0.00    -0.164 F   
ATOM     35  F3  UNL     1       4.403  -0.222   0.335  1.00  0.00    -0.164 F   
ENDBRANCH  28  32
ENDBRANCH  25  26
ENDBRANCH   3  25
TORSDOF 9
