REMARK SMILES Cc1n[nH]c(C(C)C)c1Cn1cc([C@@H]([NH2+]Cc2ccc3c(c2)OCO3)C(C)C)nn1
REMARK SMILES IDX 11 1 12 2 13 3 29 4 30 5 10 7 9 8 2 9 3 10 4 11 5 12 1 13
REMARK SMILES IDX 6 15 7 16 8 17 14 18 15 19 16 22 17 23 18 24 22 25 19 26
REMARK SMILES IDX 21 27 20 28 23 29 25 30 24 31 26 32 27 33 28 34
REMARK H PARENT 12 6 4 14 15 20 15 21
ROOT
ATOM     1   N3  UNL     1      -0.672   1.446  -1.672  1.00  0.00    -0.208 N   
ATOM     2   C9  UNL     1       0.534   1.551  -1.031  1.00  0.00     0.046 A   
ATOM     3   C10 UNL     1       0.785   0.273  -0.583  1.00  0.00     0.127 A   
ATOM     4   N5  UNL     1      -0.236  -0.552  -0.982  1.00  0.00    -0.132 NA  
ATOM     5   N6  UNL     1      -1.120   0.174  -1.645  1.00  0.00    -0.076 NA  
ATOM     6   H14 UNL     1       1.054   2.494  -0.933  1.00  0.00     0.083 HD  
ENDROOT
BRANCH   1   7
ATOM     7   C8  UNL     1      -1.462   2.502  -2.288  1.00  0.00     0.173 C   
BRANCH   7   8
ATOM     8   C7  UNL     1      -1.982   3.430  -1.243  1.00  0.00     0.013 A   
ATOM     9   C2  UNL     1      -3.002   3.152  -0.287  1.00  0.00     0.062 A   
ATOM     10  N1  UNL     1      -3.195   4.181   0.541  1.00  0.00    -0.189 NA  
ATOM     11  N2  UNL     1      -2.379   5.137   0.085  1.00  0.00    -0.242 N   
ATOM     12  C3  UNL     1      -1.600   4.737  -0.971  1.00  0.00     0.034 A   
ATOM     13  C1  UNL     1      -3.798   1.909  -0.114  1.00  0.00     0.069 C   
ATOM     14  H4  UNL     1      -2.396   6.041   0.547  1.00  0.00     0.175 HD  
BRANCH  12  15
ATOM     15  C4  UNL     1      -0.589   5.649  -1.607  1.00  0.00     0.029 C   
ATOM     16  C5  UNL     1       0.518   6.021  -0.620  1.00  0.00     0.014 C   
ATOM     17  C6  UNL     1      -1.251   6.901  -2.184  1.00  0.00     0.014 C   
ENDBRANCH  12  15
ENDBRANCH   7   8
ENDBRANCH   1   7
BRANCH   3  18
ATOM     18  C11 UNL     1       1.895  -0.279   0.254  1.00  0.00     0.117 C   
BRANCH  18  19
ATOM     19  N4  UNL     1       1.413  -1.472   1.034  1.00  0.00     0.249 N   
ATOM     20  H16 UNL     1       0.869  -2.054   0.380  1.00  0.00     0.199 HD  
ATOM     21  H17 UNL     1       2.185  -2.057   1.366  1.00  0.00     0.199 HD  
BRANCH  19  22
ATOM     22  C12 UNL     1       0.517  -1.158   2.183  1.00  0.00     0.164 C   
BRANCH  22  23
ATOM     23  C13 UNL     1       0.019  -2.426   2.817  1.00  0.00    -0.002 A   
ATOM     24  C14 UNL     1      -1.120  -3.081   2.291  1.00  0.00     0.012 A   
ATOM     25  C18 UNL     1       0.712  -2.998   3.898  1.00  0.00     0.045 A   
ATOM     26  C15 UNL     1      -1.572  -4.286   2.840  1.00  0.00     0.037 A   
ATOM     27  C17 UNL     1       0.238  -4.186   4.415  1.00  0.00     0.109 A   
ATOM     28  C16 UNL     1      -0.871  -4.812   3.902  1.00  0.00     0.108 A   
ATOM     29  O1  UNL     1       0.785  -4.868   5.455  1.00  0.00    -0.316 OA  
ATOM     30  O2  UNL     1      -1.162  -5.967   4.554  1.00  0.00    -0.316 OA  
ATOM     31  C19 UNL     1      -0.125  -5.987   5.558  1.00  0.00     0.337 C   
ENDBRANCH  22  23
ENDBRANCH  19  22
ENDBRANCH  18  19
BRANCH  18  32
ATOM     32  C20 UNL     1       3.138  -0.654  -0.596  1.00  0.00     0.037 C   
ATOM     33  C21 UNL     1       2.918  -1.852  -1.527  1.00  0.00     0.014 C   
ATOM     34  C22 UNL     1       4.370  -0.901   0.283  1.00  0.00     0.014 C   
ENDBRANCH  18  32
ENDBRANCH   3  18
TORSDOF 8
