REMARK SMILES CC(C)C[C@H]([NH2+]Cc1ccc2c(c1)OCO2)c1cn(Cc2cc(F)ccc2F)nn1
REMARK SMILES IDX 17 1 18 2 19 3 29 4 30 5 5 7 4 8 2 9 1 10 3 11 6 12 7 15
REMARK SMILES IDX 8 16 9 17 13 18 10 19 12 20 11 21 14 22 16 23 15 24 20 25
REMARK SMILES IDX 21 26 22 27 27 28 23 29 26 30 25 31 28 32 24 33
REMARK H PARENT 18 6 6 13 6 14
ROOT
ATOM     1   C14 UNL     1      -1.420   0.869  -0.114  1.00  0.00     0.127 A   
ATOM     2   C15 UNL     1      -0.848   0.741   1.131  1.00  0.00     0.046 A   
ATOM     3   N2  UNL     1      -1.810   0.116   1.874  1.00  0.00    -0.208 N   
ATOM     4   N3  UNL     1      -2.910  -0.121   1.134  1.00  0.00    -0.076 NA  
ATOM     5   N4  UNL     1      -2.686   0.346  -0.084  1.00  0.00    -0.132 NA  
ATOM     6   H20 UNL     1       0.121   1.000   1.537  1.00  0.00     0.083 HD  
ENDROOT
BRANCH   1   7
ATOM     7   C5  UNL     1      -0.861   1.385  -1.396  1.00  0.00     0.114 C   
BRANCH   7   8
ATOM     8   C4  UNL     1      -1.337   2.815  -1.718  1.00  0.00     0.064 C   
BRANCH   8   9
ATOM     9   C2  UNL     1      -0.910   3.896  -0.701  1.00  0.00    -0.012 C   
ATOM     10  C1  UNL     1      -1.498   5.249  -1.111  1.00  0.00     0.007 C   
ATOM     11  C3  UNL     1       0.610   4.013  -0.574  1.00  0.00     0.007 C   
ENDBRANCH   8   9
ENDBRANCH   7   8
BRANCH   7  12
ATOM     12  N1  UNL     1      -1.298   0.511  -2.558  1.00  0.00     0.249 N   
ATOM     13  H11 UNL     1      -0.990   0.931  -3.439  1.00  0.00     0.199 HD  
ATOM     14  H12 UNL     1      -2.327   0.517  -2.556  1.00  0.00     0.199 HD  
BRANCH  12  15
ATOM     15  C6  UNL     1      -0.870  -0.921  -2.522  1.00  0.00     0.164 C   
BRANCH  15  16
ATOM     16  C7  UNL     1       0.621  -1.099  -2.480  1.00  0.00    -0.002 A   
ATOM     17  C8  UNL     1       1.411  -0.816  -3.619  1.00  0.00     0.012 A   
ATOM     18  C12 UNL     1       1.244  -1.520  -1.291  1.00  0.00     0.045 A   
ATOM     19  C9  UNL     1       2.803  -0.942  -3.575  1.00  0.00     0.037 A   
ATOM     20  C11 UNL     1       2.618  -1.632  -1.280  1.00  0.00     0.109 A   
ATOM     21  C10 UNL     1       3.375  -1.349  -2.389  1.00  0.00     0.108 A   
ATOM     22  O1  UNL     1       3.372  -2.013  -0.217  1.00  0.00    -0.316 OA  
ATOM     23  O2  UNL     1       4.704  -1.519  -2.166  1.00  0.00    -0.316 OA  
ATOM     24  C13 UNL     1       4.699  -1.960  -0.791  1.00  0.00     0.337 C   
ENDBRANCH  15  16
ENDBRANCH  12  15
ENDBRANCH   7  12
ENDBRANCH   1   7
BRANCH   3  25
ATOM     25  C16 UNL     1      -1.736  -0.317   3.259  1.00  0.00     0.172 C   
BRANCH  25  26
ATOM     26  C17 UNL     1      -1.091  -1.672   3.358  1.00  0.00     0.010 A   
ATOM     27  C18 UNL     1      -1.862  -2.843   3.381  1.00  0.00     0.047 A   
ATOM     28  C22 UNL     1       0.303  -1.791   3.389  1.00  0.00     0.128 A   
ATOM     29  C19 UNL     1      -1.233  -4.085   3.444  1.00  0.00     0.123 A   
ATOM     30  C21 UNL     1       0.929  -3.033   3.453  1.00  0.00     0.042 A   
ATOM     31  C20 UNL     1       0.153  -4.191   3.482  1.00  0.00     0.042 A   
ATOM     32  F2  UNL     1       1.060  -0.685   3.337  1.00  0.00    -0.207 F   
ATOM     33  F1  UNL     1      -1.978  -5.197   3.457  1.00  0.00    -0.207 F   
ENDBRANCH  25  26
ENDBRANCH   3  25
TORSDOF 8
