REMARK SMILES Cc1ccc([C@H](CO)n2cc([C@@H]([NH2+]Cc3ccc4c(c3)OCO4)C(C)C)nn2)o1
REMARK SMILES IDX 9 1 10 2 11 3 27 4 28 5 6 7 5 8 2 9 3 10 29 11 4 12 1 13
REMARK SMILES IDX 7 14 8 15 12 17 13 18 14 21 15 22 16 23 20 24 17 25 19 26
REMARK SMILES IDX 18 27 21 28 23 29 22 30 24 31 25 32 26 33
REMARK H PARENT 10 6 8 16 13 19 13 20
ROOT
ATOM     1   N1  UNL     1       0.003  -0.539  -2.208  1.00  0.00    -0.200 N   
ATOM     2   C8  UNL     1       0.272  -0.332  -0.881  1.00  0.00     0.046 A   
ATOM     3   C9  UNL     1       0.720  -1.554  -0.433  1.00  0.00     0.127 A   
ATOM     4   N3  UNL     1       0.730  -2.441  -1.476  1.00  0.00    -0.132 NA  
ATOM     5   N4  UNL     1       0.290  -1.813  -2.554  1.00  0.00    -0.075 NA  
ATOM     6   H10 UNL     1       0.077   0.612  -0.390  1.00  0.00     0.083 HD  
ENDROOT
BRANCH   1   7
ATOM     7   C6  UNL     1      -0.650   0.347  -3.169  1.00  0.00     0.179 C   
BRANCH   7   8
ATOM     8   C5  UNL     1      -0.137   1.748  -3.048  1.00  0.00     0.084 A   
ATOM     9   C2  UNL     1      -0.146   3.783  -2.220  1.00  0.00     0.056 A   
ATOM     10  C3  UNL     1       0.882   3.740  -3.135  1.00  0.00     0.031 A   
ATOM     11  O4  UNL     1      -0.770   2.574  -2.162  1.00  0.00    -0.317 OA  
ATOM     12  C4  UNL     1       0.889   2.430  -3.670  1.00  0.00     0.034 A   
ATOM     13  C1  UNL     1      -0.680   4.844  -1.342  1.00  0.00     0.073 C   
ENDBRANCH   7   8
BRANCH   7  14
ATOM     14  C7  UNL     1      -2.180   0.245  -3.048  1.00  0.00     0.188 C   
BRANCH  14  15
ATOM     15  O1  UNL     1      -2.666   0.589  -1.744  1.00  0.00    -0.394 OA  
ATOM     16  H9  UNL     1      -2.513   1.550  -1.639  1.00  0.00     0.210 HD  
ENDBRANCH  14  15
ENDBRANCH   7  14
ENDBRANCH   1   7
BRANCH   3  17
ATOM     17  C10 UNL     1       1.047  -2.023   0.947  1.00  0.00     0.117 C   
BRANCH  17  18
ATOM     18  N2  UNL     1       0.234  -3.268   1.247  1.00  0.00     0.249 N   
ATOM     19  H12 UNL     1       0.475  -3.954   0.518  1.00  0.00     0.199 HD  
ATOM     20  H13 UNL     1       0.506  -3.665   2.148  1.00  0.00     0.199 HD  
BRANCH  18  21
ATOM     21  C11 UNL     1      -1.255  -3.111   1.237  1.00  0.00     0.164 C   
BRANCH  21  22
ATOM     22  C12 UNL     1      -1.755  -2.169   2.297  1.00  0.00    -0.002 A   
ATOM     23  C13 UNL     1      -1.700  -2.532   3.665  1.00  0.00     0.012 A   
ATOM     24  C17 UNL     1      -2.255  -0.905   1.937  1.00  0.00     0.045 A   
ATOM     25  C14 UNL     1      -2.126  -1.646   4.661  1.00  0.00     0.037 A   
ATOM     26  C16 UNL     1      -2.663  -0.055   2.943  1.00  0.00     0.109 A   
ATOM     27  C15 UNL     1      -2.600  -0.414   4.266  1.00  0.00     0.108 A   
ATOM     28  O2  UNL     1      -3.154   1.200   2.769  1.00  0.00    -0.316 OA  
ATOM     29  O3  UNL     1      -3.049   0.566   5.092  1.00  0.00    -0.316 OA  
ATOM     30  C18 UNL     1      -3.436   1.577   4.136  1.00  0.00     0.337 C   
ENDBRANCH  21  22
ENDBRANCH  18  21
ENDBRANCH  17  18
BRANCH  17  31
ATOM     31  C19 UNL     1       2.558  -2.344   1.118  1.00  0.00     0.037 C   
ATOM     32  C20 UNL     1       2.899  -2.866   2.521  1.00  0.00     0.014 C   
ATOM     33  C21 UNL     1       3.423  -1.104   0.842  1.00  0.00     0.014 C   
ENDBRANCH  17  31
ENDBRANCH   3  17
TORSDOF 9
