REMARK SMILES Cc1ccc([C@@H](CO)n2cc([C@@H]([NH2+]Cc3ccc4c(c3)OCO4)C(C)C)nn2)o1
REMARK SMILES IDX 9 1 10 2 11 3 27 4 28 5 6 7 5 8 2 9 3 10 29 11 4 12 1 13
REMARK SMILES IDX 7 14 8 15 12 17 13 18 14 21 15 22 16 23 20 24 17 25 19 26
REMARK SMILES IDX 18 27 21 28 23 29 22 30 24 31 25 32 26 33
REMARK H PARENT 10 6 8 16 13 19 13 20
ROOT
ATOM     1   N1  UNL     1      -0.441   0.001  -0.889  1.00  0.00    -0.200 N   
ATOM     2   C8  UNL     1       0.890   0.227  -1.130  1.00  0.00     0.046 A   
ATOM     3   C9  UNL     1       1.536  -0.640  -0.279  1.00  0.00     0.127 A   
ATOM     4   N3  UNL     1       0.606  -1.352   0.435  1.00  0.00    -0.132 NA  
ATOM     5   N4  UNL     1      -0.597  -0.952   0.059  1.00  0.00    -0.075 NA  
ATOM     6   H10 UNL     1       1.228   0.965  -1.843  1.00  0.00     0.083 HD  
ENDROOT
BRANCH   1   7
ATOM     7   C6  UNL     1      -1.585   0.670  -1.505  1.00  0.00     0.179 C   
BRANCH   7   8
ATOM     8   C5  UNL     1      -2.322  -0.286  -2.384  1.00  0.00     0.084 A   
ATOM     9   C2  UNL     1      -3.014  -0.975  -4.350  1.00  0.00     0.056 A   
ATOM     10  C3  UNL     1      -3.511  -1.871  -3.430  1.00  0.00     0.031 A   
ATOM     11  O4  UNL     1      -2.288  -0.011  -3.721  1.00  0.00    -0.317 OA  
ATOM     12  C4  UNL     1      -3.065  -1.428  -2.161  1.00  0.00     0.034 A   
ATOM     13  C1  UNL     1      -3.115  -0.864  -5.820  1.00  0.00     0.073 C   
ENDBRANCH   7   8
BRANCH   7  14
ATOM     14  C7  UNL     1      -2.497   1.324  -0.460  1.00  0.00     0.188 C   
BRANCH  14  15
ATOM     15  O1  UNL     1      -1.860   2.478   0.097  1.00  0.00    -0.394 OA  
ATOM     16  H9  UNL     1      -2.394   2.756   0.865  1.00  0.00     0.210 HD  
ENDBRANCH  14  15
ENDBRANCH   7  14
ENDBRANCH   1   7
BRANCH   3  17
ATOM     17  C10 UNL     1       2.990  -0.856  -0.007  1.00  0.00     0.117 C   
BRANCH  17  18
ATOM     18  N2  UNL     1       3.187  -1.258   1.439  1.00  0.00     0.249 N   
ATOM     19  H12 UNL     1       3.899  -1.987   1.526  1.00  0.00     0.199 HD  
ATOM     20  H13 UNL     1       2.297  -1.695   1.728  1.00  0.00     0.199 HD  
BRANCH  18  21
ATOM     21  C11 UNL     1       3.498  -0.158   2.395  1.00  0.00     0.164 C   
BRANCH  21  22
ATOM     22  C12 UNL     1       2.396   0.853   2.546  1.00  0.00    -0.002 A   
ATOM     23  C13 UNL     1       1.221   0.528   3.268  1.00  0.00     0.012 A   
ATOM     24  C17 UNL     1       2.504   2.115   1.938  1.00  0.00     0.045 A   
ATOM     25  C14 UNL     1       0.166   1.441   3.375  1.00  0.00     0.037 A   
ATOM     26  C16 UNL     1       1.444   2.989   2.060  1.00  0.00     0.109 A   
ATOM     27  C15 UNL     1       0.307   2.662   2.756  1.00  0.00     0.108 A   
ATOM     28  O2  UNL     1       1.385   4.234   1.521  1.00  0.00    -0.316 OA  
ATOM     29  O3  UNL     1      -0.614   3.661   2.745  1.00  0.00    -0.316 OA  
ATOM     30  C18 UNL     1       0.077   4.660   1.962  1.00  0.00     0.337 C   
ENDBRANCH  21  22
ENDBRANCH  18  21
ENDBRANCH  17  18
BRANCH  17  31
ATOM     31  C19 UNL     1       3.613  -1.913  -0.957  1.00  0.00     0.037 C   
ATOM     32  C20 UNL     1       5.144  -1.920  -0.862  1.00  0.00     0.014 C   
ATOM     33  C21 UNL     1       3.074  -3.335  -0.756  1.00  0.00     0.014 C   
ENDBRANCH  17  31
ENDBRANCH   3  17
TORSDOF 9
