REMARK SMILES COc1cccc(CCn2cc([C@H](CC(C)C)[NH2+]Cc3ccc4c(c3)OCO4)nn2)c1C
REMARK SMILES IDX 10 1 11 2 12 3 29 4 30 5 9 7 8 8 7 9 3 10 4 11 31 12 5 13
REMARK SMILES IDX 6 14 32 15 2 16 1 17 13 18 14 19 15 20 16 21 17 22 18 23
REMARK SMILES IDX 19 26 20 27 21 28 25 29 22 30 24 31 23 32 26 33 28 34 27 35
REMARK H PARENT 11 6 18 24 18 25
ROOT
ATOM     1   N1  UNL     1       0.490  -1.488   4.091  1.00  0.00    -0.212 N   
ATOM     2   C9  UNL     1      -0.018  -0.281   3.698  1.00  0.00     0.045 A   
ATOM     3   C10 UNL     1       0.968   0.252   2.898  1.00  0.00     0.127 A   
ATOM     4   N3  UNL     1       2.045  -0.600   2.892  1.00  0.00    -0.132 NA  
ATOM     5   N4  UNL     1       1.742  -1.655   3.632  1.00  0.00    -0.076 NA  
ATOM     6   H11 UNL     1      -1.020   0.033   3.955  1.00  0.00     0.083 HD  
ENDROOT
BRANCH   1   7
ATOM     7   C8  UNL     1      -0.199  -2.554   4.789  1.00  0.00     0.139 C   
BRANCH   7   8
ATOM     8   C7  UNL     1      -0.749  -3.636   3.849  1.00  0.00     0.057 C   
BRANCH   8   9
ATOM     9   C6  UNL     1      -1.653  -3.075   2.765  1.00  0.00    -0.041 A   
ATOM     10  C2  UNL     1      -2.099  -2.320   0.500  1.00  0.00     0.078 A   
ATOM     11  C3  UNL     1      -3.330  -1.800   0.904  1.00  0.00     0.034 A   
ATOM     12  C24 UNL     1      -1.246  -2.969   1.413  1.00  0.00    -0.018 A   
ATOM     13  C4  UNL     1      -3.748  -1.951   2.221  1.00  0.00     0.003 A   
ATOM     14  C5  UNL     1      -2.916  -2.581   3.145  1.00  0.00     0.004 A   
ATOM     15  C25 UNL     1       0.051  -3.577   0.940  1.00  0.00     0.047 C   
BRANCH  10  16
ATOM     16  O1  UNL     1      -1.659  -2.107  -0.783  1.00  0.00    -0.349 OA  
ATOM     17  C1  UNL     1      -2.473  -2.807  -1.730  1.00  0.00     0.203 C   
ENDBRANCH  10  16
ENDBRANCH   8   9
ENDBRANCH   7   8
ENDBRANCH   1   7
BRANCH   3  18
ATOM     18  C11 UNL     1       1.010   1.469   2.031  1.00  0.00     0.114 C   
BRANCH  18  19
ATOM     19  C12 UNL     1      -0.316   2.249   1.961  1.00  0.00     0.064 C   
BRANCH  19  20
ATOM     20  C13 UNL     1      -0.323   3.501   1.060  1.00  0.00    -0.012 C   
ATOM     21  C14 UNL     1      -1.712   4.147   1.085  1.00  0.00     0.007 C   
ATOM     22  C15 UNL     1       0.731   4.529   1.476  1.00  0.00     0.007 C   
ENDBRANCH  19  20
ENDBRANCH  18  19
BRANCH  18  23
ATOM     23  N2  UNL     1       1.507   1.111   0.656  1.00  0.00     0.249 N   
ATOM     24  H22 UNL     1       1.719   1.949   0.106  1.00  0.00     0.199 HD  
ATOM     25  H23 UNL     1       2.410   0.638   0.801  1.00  0.00     0.199 HD  
BRANCH  23  26
ATOM     26  C16 UNL     1       0.675   0.171  -0.151  1.00  0.00     0.164 C   
BRANCH  26  27
ATOM     27  C17 UNL     1       1.325  -0.083  -1.483  1.00  0.00    -0.002 A   
ATOM     28  C18 UNL     1       0.962   0.686  -2.614  1.00  0.00     0.012 A   
ATOM     29  C22 UNL     1       2.335  -1.054  -1.597  1.00  0.00     0.045 A   
ATOM     30  C19 UNL     1       1.592   0.486  -3.848  1.00  0.00     0.037 A   
ATOM     31  C21 UNL     1       2.936  -1.224  -2.827  1.00  0.00     0.109 A   
ATOM     32  C20 UNL     1       2.576  -0.475  -3.920  1.00  0.00     0.108 A   
ATOM     33  O2  UNL     1       3.925  -2.112  -3.108  1.00  0.00    -0.316 OA  
ATOM     34  O3  UNL     1       3.292  -0.800  -5.028  1.00  0.00    -0.316 OA  
ATOM     35  C23 UNL     1       4.131  -1.857  -4.515  1.00  0.00     0.337 C   
ENDBRANCH  26  27
ENDBRANCH  23  26
ENDBRANCH  18  23
ENDBRANCH   3  18
TORSDOF 10
