REMARK SMILES CC(C)(C)[C@H]([NH2+]Cc1ccc2c(c1)OCO2)c1cn(-c2cc(N)ccc2Cl)nn1
REMARK SMILES IDX 17 1 18 2 19 3 28 4 29 5 5 6 2 7 1 8 3 9 4 10 6 11 7 14 8 15
REMARK SMILES IDX 9 16 13 17 10 18 12 19 11 20 14 21 16 22 15 23 20 24 21 25
REMARK SMILES IDX 26 26 22 27 25 28 24 29 27 30 23 31
REMARK H PARENT 6 12 6 13 23 32 23 33
ROOT
ATOM     1   C14 UNL     1       0.913  -0.068   1.258  1.00  0.00     0.128 A   
ATOM     2   C15 UNL     1       0.504  -0.872   0.217  1.00  0.00     0.135 A   
ATOM     3   N2  UNL     1      -0.876  -0.815   0.222  1.00  0.00    -0.179 N   
ATOM     4   N4  UNL     1      -1.252  -0.118   1.337  1.00  0.00    -0.071 NA  
ATOM     5   N5  UNL     1      -0.182   0.374   1.934  1.00  0.00    -0.131 NA  
ENDROOT
BRANCH   1   6
ATOM     6   C5  UNL     1       2.270   0.454   1.623  1.00  0.00     0.120 C   
BRANCH   6   7
ATOM     7   C2  UNL     1       2.925  -0.255   2.857  1.00  0.00     0.010 C   
ATOM     8   C1  UNL     1       2.997  -1.780   2.613  1.00  0.00     0.017 C   
ATOM     9   C3  UNL     1       2.157  -0.011   4.171  1.00  0.00     0.017 C   
ATOM     10  C4  UNL     1       4.378   0.241   3.043  1.00  0.00     0.017 C   
ENDBRANCH   6   7
BRANCH   6  11
ATOM     11  N1  UNL     1       2.151   1.951   1.859  1.00  0.00     0.250 N   
ATOM     12  H11 UNL     1       2.771   2.262   2.611  1.00  0.00     0.199 HD  
ATOM     13  H12 UNL     1       1.192   2.106   2.212  1.00  0.00     0.199 HD  
BRANCH  11  14
ATOM     14  C6  UNL     1       2.361   2.836   0.671  1.00  0.00     0.164 C   
BRANCH  14  15
ATOM     15  C7  UNL     1       1.388   2.604  -0.452  1.00  0.00    -0.002 A   
ATOM     16  C8  UNL     1       1.815   1.987  -1.653  1.00  0.00     0.012 A   
ATOM     17  C12 UNL     1       0.032   2.947  -0.298  1.00  0.00     0.045 A   
ATOM     18  C9  UNL     1       0.903   1.685  -2.671  1.00  0.00     0.037 A   
ATOM     19  C11 UNL     1      -0.841   2.627  -1.317  1.00  0.00     0.109 A   
ATOM     20  C10 UNL     1      -0.420   2.007  -2.467  1.00  0.00     0.108 A   
ATOM     21  O1  UNL     1      -2.181   2.849  -1.308  1.00  0.00    -0.316 OA  
ATOM     22  O2  UNL     1      -1.442   1.758  -3.326  1.00  0.00    -0.316 OA  
ATOM     23  C13 UNL     1      -2.561   2.301  -2.591  1.00  0.00     0.337 C   
ENDBRANCH  14  15
ENDBRANCH  11  14
ENDBRANCH   6  11
ENDBRANCH   1   6
BRANCH   3  24
ATOM     24  C16 UNL     1      -1.859  -1.293  -0.693  1.00  0.00     0.078 A   
ATOM     25  C17 UNL     1      -3.215  -1.109  -0.325  1.00  0.00     0.050 A   
ATOM     26  C21 UNL     1      -1.588  -1.884  -1.937  1.00  0.00     0.064 A   
ATOM     27  C18 UNL     1      -4.273  -1.536  -1.135  1.00  0.00     0.025 A   
ATOM     28  C20 UNL     1      -2.652  -2.265  -2.769  1.00  0.00     0.024 A   
ATOM     29  C19 UNL     1      -3.978  -2.074  -2.381  1.00  0.00     0.025 A   
ATOM     30  CL1 UNL     1      -0.026  -2.154  -2.620  1.00  0.00    -0.082 Cl  
BRANCH  27  31
ATOM     31  N3  UNL     1      -5.589  -1.212  -0.802  1.00  0.00    -0.358 N   
ATOM     32  H22 UNL     1      -5.767  -1.121   0.195  1.00  0.00     0.143 HD  
ATOM     33  H23 UNL     1      -6.293  -1.785  -1.259  1.00  0.00     0.143 HD  
ENDBRANCH  27  31
ENDBRANCH   3  24
TORSDOF 7
