REMARK SMILES c1ccn2c(CCn3cc([C@@H]([NH2+]Cc4ccc5c(c4)OCO5)C4CCCCC4)nn3)cnc2c1
REMARK SMILES IDX 8 1 9 2 10 3 29 4 30 5 7 7 6 8 5 9 1 10 2 11 34 12 3 13
REMARK SMILES IDX 33 14 4 15 32 16 31 17 11 18 12 19 13 22 14 23 15 24 19 25
REMARK SMILES IDX 16 26 18 27 17 28 20 29 22 30 21 31 23 32 24 33 28 34 25 35
REMARK SMILES IDX 27 36 26 37
REMARK H PARENT 9 6 12 20 12 21
ROOT
ATOM     1   N2  UNL     1       1.134  -0.820   2.004  1.00  0.00    -0.212 N   
ATOM     2   C7  UNL     1       1.060  -0.356   0.722  1.00  0.00     0.045 A   
ATOM     3   C8  UNL     1       0.009  -1.058   0.178  1.00  0.00     0.127 A   
ATOM     4   N4  UNL     1      -0.460  -1.955   1.108  1.00  0.00    -0.132 NA  
ATOM     5   N5  UNL     1       0.243  -1.804   2.218  1.00  0.00    -0.076 NA  
ATOM     6   H8  UNL     1       1.701   0.431   0.348  1.00  0.00     0.083 HD  
ENDROOT
BRANCH   1   7
ATOM     7   C6  UNL     1       1.961  -0.322   3.084  1.00  0.00     0.140 C   
BRANCH   7   8
ATOM     8   C5  UNL     1       1.190   0.578   4.056  1.00  0.00     0.075 C   
BRANCH   8   9
ATOM     9   C4  UNL     1       0.606   1.778   3.382  1.00  0.00     0.036 A   
ATOM     10  C1  UNL     1       2.143   5.398   2.238  1.00  0.00     0.005 A   
ATOM     11  C2  UNL     1       3.043   4.527   2.977  1.00  0.00     0.016 A   
ATOM     12  C26 UNL     1       0.877   5.029   1.961  1.00  0.00     0.045 A   
ATOM     13  C3  UNL     1       2.598   3.328   3.390  1.00  0.00     0.082 A   
ATOM     14  C25 UNL     1       0.399   3.759   2.393  1.00  0.00     0.128 A   
ATOM     15  N1  UNL     1       1.287   2.948   3.099  1.00  0.00    -0.263 N   
ATOM     16  N6  UNL     1      -0.772   3.179   2.241  1.00  0.00    -0.239 NA  
ATOM     17  C24 UNL     1      -0.667   1.978   2.885  1.00  0.00     0.133 A   
ENDBRANCH   8   9
ENDBRANCH   7   8
ENDBRANCH   1   7
BRANCH   3  18
ATOM     18  C9  UNL     1      -0.616  -1.018  -1.178  1.00  0.00     0.117 C   
BRANCH  18  19
ATOM     19  N3  UNL     1      -1.105  -2.409  -1.542  1.00  0.00     0.249 N   
ATOM     20  H10 UNL     1      -2.012  -2.361  -2.014  1.00  0.00     0.199 HD  
ATOM     21  H11 UNL     1      -1.277  -2.886  -0.643  1.00  0.00     0.199 HD  
BRANCH  19  22
ATOM     22  C10 UNL     1      -0.176  -3.247  -2.353  1.00  0.00     0.164 C   
BRANCH  22  23
ATOM     23  C11 UNL     1       1.160  -3.491  -1.710  1.00  0.00    -0.002 A   
ATOM     24  C12 UNL     1       1.273  -4.347  -0.589  1.00  0.00     0.012 A   
ATOM     25  C16 UNL     1       2.307  -2.838  -2.196  1.00  0.00     0.045 A   
ATOM     26  C13 UNL     1       2.503  -4.541   0.049  1.00  0.00     0.037 A   
ATOM     27  C15 UNL     1       3.504  -3.051  -1.544  1.00  0.00     0.109 A   
ATOM     28  C14 UNL     1       3.600  -3.877  -0.452  1.00  0.00     0.108 A   
ATOM     29  O1  UNL     1       4.695  -2.488  -1.877  1.00  0.00    -0.316 OA  
ATOM     30  O2  UNL     1       4.864  -3.939   0.041  1.00  0.00    -0.316 OA  
ATOM     31  C17 UNL     1       5.567  -3.096  -0.897  1.00  0.00     0.337 C   
ENDBRANCH  22  23
ENDBRANCH  19  22
ENDBRANCH  18  19
BRANCH  18  32
ATOM     32  C18 UNL     1      -1.806  -0.028  -1.299  1.00  0.00     0.043 C   
ATOM     33  C19 UNL     1      -2.947  -0.287  -0.296  1.00  0.00     0.010 C   
ATOM     34  C23 UNL     1      -1.333   1.436  -1.203  1.00  0.00     0.010 C   
ATOM     35  C20 UNL     1      -4.098   0.699  -0.487  1.00  0.00     0.001 C   
ATOM     36  C22 UNL     1      -2.488   2.419  -1.383  1.00  0.00     0.001 C   
ATOM     37  C21 UNL     1      -3.621   2.145  -0.401  1.00  0.00     0.000 C   
ENDBRANCH  18  32
ENDBRANCH   3  18
TORSDOF 8
