REMARK SMILES CC(C)(C)[C@H]([NH2+]Cc1ccc2c(c1)OCO2)c1cn(-c2nc3ccccc3[nH]2)nn1
REMARK SMILES IDX 5 1 2 2 1 3 3 4 4 5 6 6 7 9 8 10 9 11 13 12 10 13 12 14
REMARK SMILES IDX 11 15 14 16 16 17 15 18 17 19 18 20 30 21 19 22 29 23 20 24
REMARK SMILES IDX 21 25 28 26 22 27 27 28 23 29 26 30 24 31 25 32
REMARK H PARENT 6 7 6 8 28 33
ROOT
ATOM     1   C5  UNL     1      -1.827   1.700   0.382  1.00  0.00     0.120 C   
ENDROOT
BRANCH   1   2
ATOM     2   C2  UNL     1      -3.220   1.930  -0.300  1.00  0.00     0.010 C   
ATOM     3   C1  UNL     1      -3.630   0.676  -1.108  1.00  0.00     0.017 C   
ATOM     4   C3  UNL     1      -4.310   2.146   0.776  1.00  0.00     0.017 C   
ATOM     5   C4  UNL     1      -3.230   3.143  -1.252  1.00  0.00     0.017 C   
ENDBRANCH   1   2
BRANCH   1   6
ATOM     6   N1  UNL     1      -1.388   2.946   1.136  1.00  0.00     0.250 N   
ATOM     7   H11 UNL     1      -2.186   3.546   1.357  1.00  0.00     0.199 HD  
ATOM     8   H12 UNL     1      -0.803   3.487   0.479  1.00  0.00     0.199 HD  
BRANCH   6   9
ATOM     9   C6  UNL     1      -0.603   2.729   2.393  1.00  0.00     0.164 C   
BRANCH   9  10
ATOM     10  C7  UNL     1       0.735   2.084   2.167  1.00  0.00    -0.002 A   
ATOM     11  C8  UNL     1       1.797   2.822   1.589  1.00  0.00     0.012 A   
ATOM     12  C12 UNL     1       0.919   0.721   2.454  1.00  0.00     0.045 A   
ATOM     13  C9  UNL     1       3.010   2.204   1.265  1.00  0.00     0.037 A   
ATOM     14  C11 UNL     1       2.121   0.139   2.106  1.00  0.00     0.109 A   
ATOM     15  C10 UNL     1       3.135   0.857   1.521  1.00  0.00     0.108 A   
ATOM     16  O1  UNL     1       2.433  -1.174   2.258  1.00  0.00    -0.316 OA  
ATOM     17  O2  UNL     1       4.214   0.087   1.230  1.00  0.00    -0.316 OA  
ATOM     18  C13 UNL     1       3.760  -1.208   1.682  1.00  0.00     0.337 C   
ENDBRANCH   9  10
ENDBRANCH   6   9
ENDBRANCH   1   6
BRANCH   1  19
ATOM     19  C14 UNL     1      -0.735   1.304  -0.568  1.00  0.00     0.128 A   
ATOM     20  C15 UNL     1      -0.150   0.081  -0.802  1.00  0.00     0.138 A   
ATOM     21  N6  UNL     1      -0.059   2.267  -1.275  1.00  0.00    -0.131 NA  
ATOM     22  N2  UNL     1       0.921   0.362  -1.613  1.00  0.00    -0.149 N   
ATOM     23  N5  UNL     1       0.938   1.680  -1.923  1.00  0.00    -0.068 NA  
BRANCH  22  24
ATOM     24  C16 UNL     1       1.931  -0.468  -2.058  1.00  0.00     0.212 A   
ATOM     25  N3  UNL     1       2.024  -1.747  -1.760  1.00  0.00    -0.215 NA  
ATOM     26  N4  UNL     1       2.969  -0.041  -2.841  1.00  0.00    -0.284 N   
ATOM     27  C17 UNL     1       3.180  -2.166  -2.377  1.00  0.00     0.088 A   
ATOM     28  C22 UNL     1       3.793  -1.116  -3.057  1.00  0.00     0.059 A   
ATOM     29  C18 UNL     1       3.775  -3.434  -2.394  1.00  0.00     0.030 A   
ATOM     30  C21 UNL     1       4.987  -1.256  -3.766  1.00  0.00     0.026 A   
ATOM     31  C19 UNL     1       4.975  -3.602  -3.098  1.00  0.00     0.002 A   
ATOM     32  C20 UNL     1       5.568  -2.530  -3.769  1.00  0.00     0.002 A   
ATOM     33  H25 UNL     1       3.101   0.899  -3.186  1.00  0.00     0.156 HD  
ENDBRANCH  22  24
ENDBRANCH   1  19
TORSDOF 6
