REMARK SMILES COc1c(C)cccc1Cn1cc([C@@H]([NH2+]Cc2ccc3c(c2)OCO3)C2CCCC2)nn1
REMARK SMILES IDX 11 1 12 2 13 3 31 4 32 5 10 7 9 8 3 9 4 10 6 11 8 12 7 13
REMARK SMILES IDX 5 14 2 15 1 16 14 17 15 18 16 21 17 22 18 23 22 24 19 25
REMARK SMILES IDX 21 26 20 27 23 28 25 29 24 30 26 31 27 32 30 33 28 34 29 35
REMARK H PARENT 12 6 15 19 15 20
ROOT
ATOM     1   N1  UNL     1       1.098  -1.112   2.380  1.00  0.00    -0.208 N   
ATOM     2   C10 UNL     1       0.534   0.003   1.822  1.00  0.00     0.046 A   
ATOM     3   C11 UNL     1      -0.712  -0.424   1.422  1.00  0.00     0.127 A   
ATOM     4   N3  UNL     1      -0.889  -1.729   1.801  1.00  0.00    -0.132 NA  
ATOM     5   N4  UNL     1       0.218  -2.134   2.402  1.00  0.00    -0.076 NA  
ATOM     6   H12 UNL     1       1.078   0.931   1.705  1.00  0.00     0.083 HD  
ENDROOT
BRANCH   1   7
ATOM     7   C9  UNL     1       2.450  -1.288   2.888  1.00  0.00     0.172 C   
BRANCH   7   8
ATOM     8   C8  UNL     1       3.504  -0.849   1.896  1.00  0.00     0.002 A   
ATOM     9   C2  UNL     1       3.590  -1.394   0.598  1.00  0.00     0.082 A   
ATOM     10  C3  UNL     1       4.531  -0.920  -0.331  1.00  0.00    -0.020 A   
ATOM     11  C5  UNL     1       5.460   0.042   0.086  1.00  0.00     0.006 A   
ATOM     12  C7  UNL     1       4.446   0.117   2.281  1.00  0.00     0.008 A   
ATOM     13  C6  UNL     1       5.421   0.552   1.384  1.00  0.00     0.001 A   
ATOM     14  C4  UNL     1       4.599  -1.440  -1.740  1.00  0.00     0.047 C   
BRANCH   9  15
ATOM     15  O1  UNL     1       2.673  -2.342   0.208  1.00  0.00    -0.349 OA  
ATOM     16  C1  UNL     1       3.200  -3.658   0.415  1.00  0.00     0.203 C   
ENDBRANCH   9  15
ENDBRANCH   7   8
ENDBRANCH   1   7
BRANCH   3  17
ATOM     17  C12 UNL     1      -1.756   0.251   0.599  1.00  0.00     0.117 C   
BRANCH  17  18
ATOM     18  N2  UNL     1      -2.162  -0.655  -0.547  1.00  0.00     0.249 N   
ATOM     19  H14 UNL     1      -2.953  -0.254  -1.056  1.00  0.00     0.199 HD  
ATOM     20  H15 UNL     1      -2.484  -1.534  -0.117  1.00  0.00     0.199 HD  
BRANCH  18  21
ATOM     21  C13 UNL     1      -1.086  -1.019  -1.522  1.00  0.00     0.164 C   
BRANCH  21  22
ATOM     22  C14 UNL     1      -0.452   0.169  -2.192  1.00  0.00    -0.002 A   
ATOM     23  C15 UNL     1      -1.192   0.981  -3.085  1.00  0.00     0.012 A   
ATOM     24  C19 UNL     1       0.886   0.495  -1.909  1.00  0.00     0.045 A   
ATOM     25  C16 UNL     1      -0.612   2.107  -3.680  1.00  0.00     0.037 A   
ATOM     26  C18 UNL     1       1.428   1.611  -2.512  1.00  0.00     0.109 A   
ATOM     27  C17 UNL     1       0.700   2.396  -3.371  1.00  0.00     0.108 A   
ATOM     28  O2  UNL     1       2.696   2.067  -2.340  1.00  0.00    -0.316 OA  
ATOM     29  O3  UNL     1       1.417   3.446  -3.848  1.00  0.00    -0.316 OA  
ATOM     30  C20 UNL     1       2.696   3.215  -3.219  1.00  0.00     0.337 C   
ENDBRANCH  21  22
ENDBRANCH  18  21
ENDBRANCH  17  18
BRANCH  17  31
ATOM     31  C21 UNL     1      -3.015   0.584   1.425  1.00  0.00     0.043 C   
ATOM     32  C22 UNL     1      -4.141   1.256   0.625  1.00  0.00     0.010 C   
ATOM     33  C25 UNL     1      -2.755   1.596   2.544  1.00  0.00     0.010 C   
ATOM     34  C23 UNL     1      -4.919   2.114   1.625  1.00  0.00     0.001 C   
ATOM     35  C24 UNL     1      -4.156   2.031   2.942  1.00  0.00     0.001 C   
ENDBRANCH  17  31
ENDBRANCH   3  17
TORSDOF 8
