REMARK SMILES CCc1ccc([C@@H](O)Cn2cc([C@@H]([NH2+]Cc3ccc4c(c3)OCO4)C3CCCCC3)nn2)s1
REMARK SMILES IDX 10 1 11 2 12 3 31 4 32 5 9 7 7 8 6 9 3 10 4 11 33 12 5 13
REMARK SMILES IDX 2 14 1 15 8 16 13 18 14 19 15 22 16 23 17 24 21 25 18 26
REMARK SMILES IDX 20 27 19 28 22 29 24 30 23 31 25 32 26 33 30 34 27 35 29 36
REMARK SMILES IDX 28 37
REMARK H PARENT 11 6 8 17 14 20 14 21
ROOT
ATOM     1   N1  UNL     1       2.513  -0.613   1.984  1.00  0.00    -0.209 N   
ATOM     2   C9  UNL     1       1.500   0.076   1.384  1.00  0.00     0.045 A   
ATOM     3   C10 UNL     1       1.441  -0.459   0.115  1.00  0.00     0.127 A   
ATOM     4   N3  UNL     1       2.431  -1.399  -0.021  1.00  0.00    -0.132 NA  
ATOM     5   N4  UNL     1       3.082  -1.481   1.126  1.00  0.00    -0.076 NA  
ATOM     6   H12 UNL     1       0.918   0.826   1.903  1.00  0.00     0.083 HD  
ENDROOT
BRANCH   1   7
ATOM     7   C8  UNL     1       2.972  -0.539   3.358  1.00  0.00     0.171 C   
BRANCH   7   8
ATOM     8   C7  UNL     1       2.590  -1.777   4.181  1.00  0.00     0.170 C   
BRANCH   8   9
ATOM     9   C6  UNL     1       1.113  -2.081   4.159  1.00  0.00     0.020 A   
ATOM     10  C3  UNL     1      -1.328  -1.989   4.575  1.00  0.00    -0.011 A   
ATOM     11  C4  UNL     1      -0.978  -3.029   3.740  1.00  0.00     0.012 A   
ATOM     12  S1  UNL     1       0.040  -1.085   5.056  1.00  0.00    -0.096 S   
ATOM     13  C5  UNL     1       0.425  -3.083   3.501  1.00  0.00     0.014 A   
BRANCH  10  14
ATOM     14  C2  UNL     1      -2.692  -1.625   5.081  1.00  0.00     0.039 C   
ATOM     15  C1  UNL     1      -3.348  -0.555   4.220  1.00  0.00     0.009 C   
ENDBRANCH  10  14
ENDBRANCH   8   9
BRANCH   8  16
ATOM     16  O1  UNL     1       3.300  -2.937   3.741  1.00  0.00    -0.386 OA  
ATOM     17  H9  UNL     1       3.223  -2.995   2.770  1.00  0.00     0.211 HD  
ENDBRANCH   8  16
ENDBRANCH   7   8
ENDBRANCH   1   7
BRANCH   3  18
ATOM     18  C11 UNL     1       0.559  -0.151  -1.051  1.00  0.00     0.117 C   
BRANCH  18  19
ATOM     19  N2  UNL     1       1.328  -0.353  -2.341  1.00  0.00     0.249 N   
ATOM     20  H14 UNL     1       0.685  -0.444  -3.133  1.00  0.00     0.199 HD  
ATOM     21  H15 UNL     1       1.819  -1.253  -2.243  1.00  0.00     0.199 HD  
BRANCH  19  22
ATOM     22  C12 UNL     1       2.361   0.675  -2.661  1.00  0.00     0.164 C   
BRANCH  22  23
ATOM     23  C13 UNL     1       1.759   1.986  -3.086  1.00  0.00    -0.002 A   
ATOM     24  C14 UNL     1       1.772   3.098  -2.209  1.00  0.00     0.012 A   
ATOM     25  C18 UNL     1       1.152   2.108  -4.348  1.00  0.00     0.045 A   
ATOM     26  C15 UNL     1       1.182   4.312  -2.578  1.00  0.00     0.037 A   
ATOM     27  C17 UNL     1       0.580   3.319  -4.681  1.00  0.00     0.109 A   
ATOM     28  C16 UNL     1       0.592   4.389  -3.821  1.00  0.00     0.108 A   
ATOM     29  O2  UNL     1      -0.041   3.602  -5.855  1.00  0.00    -0.316 OA  
ATOM     30  O3  UNL     1      -0.025   5.480  -4.343  1.00  0.00    -0.316 OA  
ATOM     31  C19 UNL     1      -0.392   4.991  -5.651  1.00  0.00     0.337 C   
ENDBRANCH  22  23
ENDBRANCH  19  22
ENDBRANCH  18  19
BRANCH  18  32
ATOM     32  C20 UNL     1      -0.734  -1.009  -1.119  1.00  0.00     0.043 C   
ATOM     33  C21 UNL     1      -0.485  -2.529  -1.210  1.00  0.00     0.010 C   
ATOM     34  C25 UNL     1      -1.688  -0.700   0.052  1.00  0.00     0.010 C   
ATOM     35  C22 UNL     1      -1.796  -3.307  -1.322  1.00  0.00     0.001 C   
ATOM     36  C24 UNL     1      -2.998  -1.475  -0.076  1.00  0.00     0.001 C   
ATOM     37  C23 UNL     1      -2.752  -2.976  -0.182  1.00  0.00     0.000 C   
ENDBRANCH  18  32
ENDBRANCH   3  18
TORSDOF 10
