REMARK SMILES Fc1cccnc1CCn1cc([C@@H]([NH2+]Cc2ccc3c(c2)OCO3)C2CCCCC2)nn1
REMARK SMILES IDX 10 1 11 2 12 3 31 4 32 5 9 7 8 8 7 9 2 10 3 11 4 12 6 13
REMARK SMILES IDX 5 14 1 15 13 16 14 17 15 20 16 21 17 22 21 23 18 24 20 25
REMARK SMILES IDX 19 26 22 27 24 28 23 29 25 30 26 31 30 32 27 33 29 34 28 35
REMARK H PARENT 11 6 14 18 14 19
ROOT
ATOM     1   N2  UNL     1      -2.252   1.286  -2.008  1.00  0.00    -0.212 N   
ATOM     2   C8  UNL     1      -1.302   0.481  -1.446  1.00  0.00     0.045 A   
ATOM     3   C9  UNL     1      -0.523   1.349  -0.716  1.00  0.00     0.127 A   
ATOM     4   N4  UNL     1      -0.966   2.632  -0.918  1.00  0.00    -0.132 NA  
ATOM     5   N5  UNL     1      -2.009   2.582  -1.729  1.00  0.00    -0.076 NA  
ATOM     6   H8  UNL     1      -1.309  -0.593  -1.572  1.00  0.00     0.083 HD  
ENDROOT
BRANCH   1   7
ATOM     7   C7  UNL     1      -3.389   0.905  -2.818  1.00  0.00     0.140 C   
BRANCH   7   8
ATOM     8   C6  UNL     1      -4.715   1.016  -2.067  1.00  0.00     0.081 C   
BRANCH   8   9
ATOM     9   C5  UNL     1      -4.874   0.036  -0.930  1.00  0.00     0.078 A   
ATOM     10  C1  UNL     1      -5.844   0.271   0.042  1.00  0.00     0.144 A   
ATOM     11  C2  UNL     1      -6.030  -0.651   1.062  1.00  0.00     0.043 A   
ATOM     12  C3  UNL     1      -5.249  -1.801   1.081  1.00  0.00     0.023 A   
ATOM     13  N1  UNL     1      -4.101  -1.083  -0.925  1.00  0.00    -0.258 NA  
ATOM     14  C4  UNL     1      -4.312  -1.974   0.074  1.00  0.00     0.111 A   
ATOM     15  F1  UNL     1      -6.603   1.373   0.000  1.00  0.00    -0.205 F   
ENDBRANCH   8   9
ENDBRANCH   7   8
ENDBRANCH   1   7
BRANCH   3  16
ATOM     16  C10 UNL     1       0.666   1.106   0.156  1.00  0.00     0.117 C   
BRANCH  16  17
ATOM     17  N3  UNL     1       1.691   2.195  -0.100  1.00  0.00     0.249 N   
ATOM     18  H10 UNL     1       2.453   2.151   0.578  1.00  0.00     0.199 HD  
ATOM     19  H11 UNL     1       1.199   3.088   0.042  1.00  0.00     0.199 HD  
BRANCH  17  20
ATOM     20  C11 UNL     1       2.292   2.233  -1.469  1.00  0.00     0.164 C   
BRANCH  20  21
ATOM     21  C12 UNL     1       3.144   1.031  -1.765  1.00  0.00    -0.002 A   
ATOM     22  C13 UNL     1       4.422   0.892  -1.172  1.00  0.00     0.012 A   
ATOM     23  C17 UNL     1       2.658   0.014  -2.606  1.00  0.00     0.045 A   
ATOM     24  C14 UNL     1       5.205  -0.242  -1.411  1.00  0.00     0.037 A   
ATOM     25  C16 UNL     1       3.454  -1.091  -2.818  1.00  0.00     0.109 A   
ATOM     26  C15 UNL     1       4.692  -1.216  -2.239  1.00  0.00     0.108 A   
ATOM     27  O1  UNL     1       3.131  -2.163  -3.588  1.00  0.00    -0.316 OA  
ATOM     28  O2  UNL     1       5.307  -2.378  -2.576  1.00  0.00    -0.316 OA  
ATOM     29  C18 UNL     1       4.327  -2.964  -3.460  1.00  0.00     0.337 C   
ENDBRANCH  20  21
ENDBRANCH  17  20
ENDBRANCH  16  17
BRANCH  16  30
ATOM     30  C19 UNL     1       0.296   1.096   1.673  1.00  0.00     0.043 C   
ATOM     31  C20 UNL     1       1.524   0.823   2.571  1.00  0.00     0.010 C   
ATOM     32  C24 UNL     1      -0.802   0.046   1.971  1.00  0.00     0.010 C   
ATOM     33  C21 UNL     1       1.163   0.722   4.052  1.00  0.00     0.001 C   
ATOM     34  C23 UNL     1      -1.149  -0.041   3.455  1.00  0.00     0.001 C   
ATOM     35  C22 UNL     1       0.083  -0.320   4.303  1.00  0.00     0.000 C   
ENDBRANCH  16  30
ENDBRANCH   3  16
TORSDOF 8
