REMARK SMILES OCCc1ccc(-n2cc([C@@H]([NH2+]Cc3ccc4c(c3)OCO4)C3CCCCC3)nn2)cc1
REMARK SMILES IDX 4 1 5 2 6 3 7 4 31 5 32 6 3 7 2 8 1 9 8 11 9 12 30 13 10 14
REMARK SMILES IDX 29 15 11 16 12 17 13 20 14 21 15 22 19 23 16 24 18 25 17 26
REMARK SMILES IDX 20 27 22 28 21 29 23 30 24 31 28 32 25 33 27 34 26 35
REMARK H PARENT 1 10 12 18 12 19
ROOT
ATOM     1   C3  UNL     1       1.443   0.996   6.960  1.00  0.00    -0.046 A   
ATOM     2   C4  UNL     1       0.497   1.768   6.274  1.00  0.00     0.006 A   
ATOM     3   C5  UNL     1       0.249   1.554   4.914  1.00  0.00     0.026 A   
ATOM     4   C6  UNL     1       0.948   0.555   4.224  1.00  0.00     0.058 A   
ATOM     5   C24 UNL     1       1.893  -0.225   4.909  1.00  0.00     0.026 A   
ATOM     6   C25 UNL     1       2.137  -0.003   6.266  1.00  0.00     0.006 A   
ENDROOT
BRANCH   1   7
ATOM     7   C2  UNL     1       1.700   1.220   8.434  1.00  0.00     0.063 C   
BRANCH   7   8
ATOM     8   C1  UNL     1       0.668   0.528   9.322  1.00  0.00     0.161 C   
BRANCH   8   9
ATOM     9   O1  UNL     1       0.806  -0.889   9.268  1.00  0.00    -0.396 OA  
ATOM     10  H1  UNL     1       0.584  -1.165   8.361  1.00  0.00     0.210 HD  
ENDBRANCH   8   9
ENDBRANCH   7   8
ENDBRANCH   1   7
BRANCH   4  11
ATOM     11  N1  UNL     1       0.719   0.320   2.846  1.00  0.00    -0.181 N   
ATOM     12  C7  UNL     1      -0.137   0.971   1.977  1.00  0.00     0.135 A   
ATOM     13  N4  UNL     1       1.381  -0.644   2.159  1.00  0.00    -0.071 NA  
ATOM     14  C8  UNL     1       0.024   0.333   0.766  1.00  0.00     0.127 A   
ATOM     15  N3  UNL     1       0.966  -0.646   0.904  1.00  0.00    -0.131 NA  
BRANCH  14  16
ATOM     16  C9  UNL     1      -0.589   0.578  -0.579  1.00  0.00     0.117 C   
BRANCH  16  17
ATOM     17  N2  UNL     1       0.433   0.216  -1.628  1.00  0.00     0.249 N   
ATOM     18  H10 UNL     1       1.309   0.695  -1.374  1.00  0.00     0.199 HD  
ATOM     19  H11 UNL     1       0.680  -0.777  -1.517  1.00  0.00     0.199 HD  
BRANCH  17  20
ATOM     20  C10 UNL     1       0.132   0.527  -3.045  1.00  0.00     0.164 C   
BRANCH  20  21
ATOM     21  C11 UNL     1       1.354   0.348  -3.901  1.00  0.00    -0.002 A   
ATOM     22  C12 UNL     1       2.093   1.473  -4.345  1.00  0.00     0.012 A   
ATOM     23  C16 UNL     1       1.796  -0.944  -4.234  1.00  0.00     0.045 A   
ATOM     24  C13 UNL     1       3.254   1.316  -5.113  1.00  0.00     0.037 A   
ATOM     25  C15 UNL     1       2.943  -1.062  -4.993  1.00  0.00     0.109 A   
ATOM     26  C14 UNL     1       3.652   0.035  -5.419  1.00  0.00     0.108 A   
ATOM     27  O2  UNL     1       3.502  -2.232  -5.398  1.00  0.00    -0.316 OA  
ATOM     28  O3  UNL     1       4.750  -0.305  -6.143  1.00  0.00    -0.316 OA  
ATOM     29  C17 UNL     1       4.637  -1.745  -6.154  1.00  0.00     0.337 C   
ENDBRANCH  20  21
ENDBRANCH  17  20
ENDBRANCH  16  17
BRANCH  16  30
ATOM     30  C18 UNL     1      -1.923  -0.180  -0.819  1.00  0.00     0.043 C   
ATOM     31  C19 UNL     1      -3.027   0.288   0.152  1.00  0.00     0.010 C   
ATOM     32  C23 UNL     1      -1.797  -1.716  -0.776  1.00  0.00     0.010 C   
ATOM     33  C20 UNL     1      -4.361  -0.398  -0.135  1.00  0.00     0.001 C   
ATOM     34  C22 UNL     1      -3.136  -2.400  -1.050  1.00  0.00     0.001 C   
ATOM     35  C21 UNL     1      -4.226  -1.917  -0.099  1.00  0.00     0.000 C   
ENDBRANCH  16  30
ENDBRANCH  14  16
ENDBRANCH   4  11
TORSDOF 9
