REMARK SMILES OC[C@H](c1cc(F)cc(F)c1)n1cc([C@@H]([NH2+]Cc2ccc3c(c2)OCO3)C2CCCCC2)nn1
REMARK SMILES IDX 12 1 13 2 14 3 33 4 34 5 3 7 2 8 1 9 4 11 5 12 11 13 6 14
REMARK SMILES IDX 9 15 8 16 7 17 10 18 15 19 16 20 17 23 18 24 19 25 23 26
REMARK SMILES IDX 20 27 22 28 21 29 24 30 26 31 25 32 27 33 28 34 32 35 29 36
REMARK SMILES IDX 31 37 30 38
REMARK H PARENT 13 6 1 10 16 21 16 22
ROOT
ATOM     1   N1  UNL     1      -0.870   2.238   0.118  1.00  0.00    -0.202 N   
ATOM     2   C9  UNL     1      -0.884   1.265  -0.848  1.00  0.00     0.046 A   
ATOM     3   C10 UNL     1       0.092   0.380  -0.450  1.00  0.00     0.127 A   
ATOM     4   N3  UNL     1       0.677   0.845   0.702  1.00  0.00    -0.132 NA  
ATOM     5   N4  UNL     1       0.099   1.988   1.026  1.00  0.00    -0.075 NA  
ATOM     6   H8  UNL     1      -1.561   1.301  -1.693  1.00  0.00     0.083 HD  
ENDROOT
BRANCH   1   7
ATOM     7   C2  UNL     1      -1.716   3.432   0.205  1.00  0.00     0.155 C   
BRANCH   7   8
ATOM     8   C1  UNL     1      -0.889   4.709  -0.037  1.00  0.00     0.185 C   
BRANCH   8   9
ATOM     9   O1  UNL     1      -0.515   4.798  -1.416  1.00  0.00    -0.394 OA  
ATOM     10  H1  UNL     1      -0.064   5.652  -1.529  1.00  0.00     0.210 HD  
ENDBRANCH   8   9
ENDBRANCH   7   8
BRANCH   7  11
ATOM     11  C3  UNL     1      -2.510   3.429   1.503  1.00  0.00    -0.017 A   
ATOM     12  C4  UNL     1      -1.956   3.877   2.716  1.00  0.00     0.045 A   
ATOM     13  C8  UNL     1      -3.831   2.941   1.520  1.00  0.00     0.045 A   
ATOM     14  C5  UNL     1      -2.710   3.845   3.892  1.00  0.00     0.126 A   
ATOM     15  C7  UNL     1      -4.561   2.915   2.710  1.00  0.00     0.126 A   
ATOM     16  C6  UNL     1      -4.012   3.368   3.901  1.00  0.00     0.078 A   
ATOM     17  F1  UNL     1      -2.158   4.282   5.032  1.00  0.00    -0.207 F   
ATOM     18  F2  UNL     1      -5.813   2.438   2.701  1.00  0.00    -0.207 F   
ENDBRANCH   7  11
ENDBRANCH   1   7
BRANCH   3  19
ATOM     19  C11 UNL     1       0.603  -0.877  -1.073  1.00  0.00     0.117 C   
BRANCH  19  20
ATOM     20  N2  UNL     1       2.038  -1.109  -0.664  1.00  0.00     0.249 N   
ATOM     21  H10 UNL     1       2.097  -0.886   0.340  1.00  0.00     0.199 HD  
ATOM     22  H11 UNL     1       2.303  -2.093  -0.756  1.00  0.00     0.199 HD  
BRANCH  20  23
ATOM     23  C12 UNL     1       3.049  -0.265  -1.358  1.00  0.00     0.164 C   
BRANCH  23  24
ATOM     24  C13 UNL     1       4.435  -0.628  -0.897  1.00  0.00    -0.002 A   
ATOM     25  C14 UNL     1       5.235  -1.502  -1.671  1.00  0.00     0.012 A   
ATOM     26  C18 UNL     1       4.920  -0.149   0.335  1.00  0.00     0.045 A   
ATOM     27  C15 UNL     1       6.505  -1.891  -1.228  1.00  0.00     0.037 A   
ATOM     28  C17 UNL     1       6.174  -0.557   0.744  1.00  0.00     0.109 A   
ATOM     29  C16 UNL     1       6.944  -1.403  -0.015  1.00  0.00     0.108 A   
ATOM     30  O2  UNL     1       6.782  -0.203   1.908  1.00  0.00    -0.316 OA  
ATOM     31  O3  UNL     1       8.139  -1.683   0.571  1.00  0.00    -0.316 OA  
ATOM     32  C19 UNL     1       8.034  -0.918   1.792  1.00  0.00     0.337 C   
ENDBRANCH  23  24
ENDBRANCH  20  23
ENDBRANCH  19  20
BRANCH  19  33
ATOM     33  C20 UNL     1      -0.211  -2.150  -0.717  1.00  0.00     0.043 C   
ATOM     34  C21 UNL     1      -0.263  -2.466   0.792  1.00  0.00     0.010 C   
ATOM     35  C25 UNL     1      -1.638  -2.103  -1.299  1.00  0.00     0.010 C   
ATOM     36  C22 UNL     1      -1.027  -3.762   1.063  1.00  0.00     0.001 C   
ATOM     37  C24 UNL     1      -2.399  -3.399  -1.024  1.00  0.00     0.001 C   
ATOM     38  C23 UNL     1      -2.431  -3.725   0.466  1.00  0.00     0.000 C   
ENDBRANCH  19  33
ENDBRANCH   3  19
TORSDOF 9
