REMARK SMILES Cc1ccnc2c1[C@H](n1cc([C@@H]([NH2+]Cc3ccc4c(c3)OCO4)C(C)(C)C)nn1)CCO2
REMARK SMILES IDX 12 1 11 2 9 3 10 4 29 5 28 6 8 8 2 9 3 10 7 11 4 12 6 13
REMARK SMILES IDX 5 14 32 15 30 16 31 17 1 18 13 19 14 22 15 23 16 24 20 25
REMARK SMILES IDX 17 26 19 27 18 28 21 29 23 30 22 31 24 32 25 33 26 34 27 35
REMARK H PARENT 10 7 13 20 13 21
ROOT
ATOM     1   C10 UNL     1       1.024  -0.049  -1.889  1.00  0.00     0.120 C   
ENDROOT
BRANCH   1   2
ATOM     2   C9  UNL     1      -0.391   0.222  -1.476  1.00  0.00     0.127 A   
ATOM     3   N2  UNL     1      -2.258   0.723  -0.489  1.00  0.00    -0.204 N   
ATOM     4   C8  UNL     1      -0.899   0.829  -0.349  1.00  0.00     0.046 A   
ATOM     5   N5  UNL     1      -2.561   0.064  -1.626  1.00  0.00    -0.075 NA  
ATOM     6   N4  UNL     1      -1.429  -0.242  -2.239  1.00  0.00    -0.132 NA  
ATOM     7   H7  UNL     1      -0.432   1.301   0.506  1.00  0.00     0.083 HD  
BRANCH   3   8
ATOM     8   C7  UNL     1      -3.334   1.185   0.393  1.00  0.00     0.136 C   
ATOM     9   C2  UNL     1      -2.853  -0.097   2.559  1.00  0.00    -0.040 A   
ATOM     10  C3  UNL     1      -2.423  -0.064   3.889  1.00  0.00     0.024 A   
ATOM     11  C6  UNL     1      -2.923   1.117   1.841  1.00  0.00     0.027 A   
ATOM     12  C4  UNL     1      -2.085   1.154   4.449  1.00  0.00     0.114 A   
ATOM     13  C5  UNL     1      -2.569   2.293   2.506  1.00  0.00     0.172 A   
ATOM     14  N1  UNL     1      -2.145   2.321   3.783  1.00  0.00    -0.232 NA  
ATOM     15  O3  UNL     1      -2.636   3.535   1.947  1.00  0.00    -0.329 OA  
ATOM     16  C23 UNL     1      -3.800   2.589   0.017  1.00  0.00     0.059 C   
ATOM     17  C24 UNL     1      -2.808   3.610   0.538  1.00  0.00     0.172 C   
ATOM     18  C1  UNL     1      -3.233  -1.419   1.951  1.00  0.00     0.045 C   
ENDBRANCH   3   8
ENDBRANCH   1   2
BRANCH   1  19
ATOM     19  N3  UNL     1       1.114  -1.428  -2.515  1.00  0.00     0.250 N   
ATOM     20  H9  UNL     1       2.037  -1.580  -2.926  1.00  0.00     0.199 HD  
ATOM     21  H10 UNL     1       0.426  -1.447  -3.281  1.00  0.00     0.199 HD  
BRANCH  19  22
ATOM     22  C11 UNL     1       0.798  -2.590  -1.627  1.00  0.00     0.164 C   
BRANCH  22  23
ATOM     23  C12 UNL     1       1.726  -2.709  -0.451  1.00  0.00    -0.002 A   
ATOM     24  C13 UNL     1       3.064  -3.135  -0.630  1.00  0.00     0.012 A   
ATOM     25  C17 UNL     1       1.277  -2.361   0.836  1.00  0.00     0.045 A   
ATOM     26  C14 UNL     1       3.945  -3.208   0.454  1.00  0.00     0.037 A   
ATOM     27  C16 UNL     1       2.172  -2.443   1.882  1.00  0.00     0.109 A   
ATOM     28  C15 UNL     1       3.469  -2.852   1.697  1.00  0.00     0.108 A   
ATOM     29  O1  UNL     1       1.903  -2.137   3.178  1.00  0.00    -0.316 OA  
ATOM     30  O2  UNL     1       4.180  -2.857   2.853  1.00  0.00    -0.316 OA  
ATOM     31  C18 UNL     1       3.178  -2.423   3.797  1.00  0.00     0.337 C   
ENDBRANCH  22  23
ENDBRANCH  19  22
ENDBRANCH   1  19
BRANCH   1  32
ATOM     32  C19 UNL     1       1.624   1.031  -2.860  1.00  0.00     0.010 C   
ATOM     33  C20 UNL     1       0.904   1.080  -4.222  1.00  0.00     0.017 C   
ATOM     34  C21 UNL     1       1.535   2.433  -2.214  1.00  0.00     0.017 C   
ATOM     35  C22 UNL     1       3.123   0.749  -3.117  1.00  0.00     0.017 C   
ENDBRANCH   1  32
TORSDOF 6
