REMARK SMILES Cc1ccnc2c1[C@@H](n1cc([C@@H]([NH2+]Cc3ccc4c(c3)OCO4)C(C)(C)C)nn1)CCO2
REMARK SMILES IDX 12 1 11 2 9 3 10 4 29 5 28 6 8 8 2 9 3 10 7 11 4 12 6 13
REMARK SMILES IDX 5 14 32 15 30 16 31 17 1 18 13 19 14 22 15 23 16 24 20 25
REMARK SMILES IDX 17 26 19 27 18 28 21 29 23 30 22 31 24 32 25 33 26 34 27 35
REMARK H PARENT 10 7 13 20 13 21
ROOT
ATOM     1   C10 UNL     1      -0.990   0.946  -0.288  1.00  0.00     0.120 C   
ENDROOT
BRANCH   1   2
ATOM     2   C9  UNL     1      -0.395  -0.390  -0.624  1.00  0.00     0.127 A   
ATOM     3   N2  UNL     1       0.694  -2.262  -0.765  1.00  0.00    -0.204 N   
ATOM     4   C8  UNL     1       0.561  -1.145   0.019  1.00  0.00     0.046 A   
ATOM     5   N5  UNL     1      -0.081  -2.156  -1.864  1.00  0.00    -0.075 NA  
ATOM     6   N4  UNL     1      -0.760  -1.024  -1.782  1.00  0.00    -0.132 NA  
ATOM     7   H7  UNL     1       1.113  -1.005   0.940  1.00  0.00     0.083 HD  
BRANCH   3   8
ATOM     8   C7  UNL     1       1.525  -3.455  -0.576  1.00  0.00     0.136 C   
ATOM     9   C2  UNL     1       0.734  -4.343   1.694  1.00  0.00    -0.040 A   
ATOM     10  C3  UNL     1       1.010  -4.560   3.047  1.00  0.00     0.024 A   
ATOM     11  C6  UNL     1       1.734  -3.759   0.885  1.00  0.00     0.027 A   
ATOM     12  C4  UNL     1       2.247  -4.195   3.542  1.00  0.00     0.114 A   
ATOM     13  C5  UNL     1       2.952  -3.436   1.484  1.00  0.00     0.172 A   
ATOM     14  N1  UNL     1       3.211  -3.634   2.789  1.00  0.00    -0.232 NA  
ATOM     15  O3  UNL     1       4.016  -2.909   0.812  1.00  0.00    -0.329 OA  
ATOM     16  C23 UNL     1       2.862  -3.326  -1.302  1.00  0.00     0.059 C   
ATOM     17  C24 UNL     1       3.787  -2.429  -0.505  1.00  0.00     0.172 C   
ATOM     18  C1  UNL     1      -0.608  -4.753   1.149  1.00  0.00     0.045 C   
ENDBRANCH   3   8
ENDBRANCH   1   2
BRANCH   1  19
ATOM     19  N3  UNL     1      -1.276   1.690  -1.579  1.00  0.00     0.250 N   
ATOM     20  H9  UNL     1      -1.935   2.456  -1.431  1.00  0.00     0.199 HD  
ATOM     21  H10 UNL     1      -1.737   1.010  -2.201  1.00  0.00     0.199 HD  
BRANCH  19  22
ATOM     22  C11 UNL     1      -0.088   2.218  -2.313  1.00  0.00     0.164 C   
BRANCH  22  23
ATOM     23  C12 UNL     1       0.557   3.381  -1.610  1.00  0.00    -0.002 A   
ATOM     24  C13 UNL     1      -0.070   4.651  -1.601  1.00  0.00     0.012 A   
ATOM     25  C17 UNL     1       1.775   3.206  -0.928  1.00  0.00     0.045 A   
ATOM     26  C14 UNL     1       0.503   5.731  -0.920  1.00  0.00     0.037 A   
ATOM     27  C16 UNL     1       2.311   4.291  -0.265  1.00  0.00     0.109 A   
ATOM     28  C15 UNL     1       1.694   5.517  -0.261  1.00  0.00     0.108 A   
ATOM     29  O1  UNL     1       3.470   4.289   0.445  1.00  0.00    -0.316 OA  
ATOM     30  O2  UNL     1       2.388   6.444   0.448  1.00  0.00    -0.316 OA  
ATOM     31  C18 UNL     1       3.529   5.669   0.876  1.00  0.00     0.337 C   
ENDBRANCH  22  23
ENDBRANCH  19  22
ENDBRANCH   1  19
BRANCH   1  32
ATOM     32  C19 UNL     1      -2.290   0.866   0.590  1.00  0.00     0.010 C   
ATOM     33  C20 UNL     1      -3.467   0.196  -0.147  1.00  0.00     0.017 C   
ATOM     34  C21 UNL     1      -2.731   2.284   1.024  1.00  0.00     0.017 C   
ATOM     35  C22 UNL     1      -2.013   0.069   1.887  1.00  0.00     0.017 C   
ENDBRANCH   1  32
TORSDOF 6
