REMARK SMILES CC(C)C[C@H]([NH2+]Cc1ccc2c(c1)OCO2)c1cn(C[C@H](O)c2cccnc2)nn1
REMARK SMILES IDX 17 1 18 2 19 3 29 4 30 5 5 7 4 8 2 9 1 10 3 11 6 12 7 15
REMARK SMILES IDX 8 16 9 17 13 18 10 19 12 20 11 21 14 22 16 23 15 24 20 25
REMARK SMILES IDX 21 26 22 27 23 29 24 30 28 31 25 32 27 33 26 34
REMARK H PARENT 18 6 6 13 6 14 22 28
ROOT
ATOM     1   C14 UNL     1       0.589  -2.006   0.728  1.00  0.00     0.127 A   
ATOM     2   C15 UNL     1       1.413  -1.351   1.617  1.00  0.00     0.045 A   
ATOM     3   N2  UNL     1       2.666  -1.783   1.282  1.00  0.00    -0.209 N   
ATOM     4   N4  UNL     1       2.615  -2.675   0.276  1.00  0.00    -0.076 NA  
ATOM     5   N5  UNL     1       1.349  -2.812  -0.080  1.00  0.00    -0.132 NA  
ATOM     6   H20 UNL     1       1.239  -0.614   2.389  1.00  0.00     0.083 HD  
ENDROOT
BRANCH   1   7
ATOM     7   C5  UNL     1      -0.880  -1.891   0.484  1.00  0.00     0.114 C   
BRANCH   7   8
ATOM     8   C4  UNL     1      -1.620  -3.149   0.984  1.00  0.00     0.064 C   
BRANCH   8   9
ATOM     9   C2  UNL     1      -3.158  -3.137   0.856  1.00  0.00    -0.012 C   
ATOM     10  C1  UNL     1      -3.799  -1.942   1.563  1.00  0.00     0.007 C   
ATOM     11  C3  UNL     1      -3.730  -4.440   1.425  1.00  0.00     0.007 C   
ENDBRANCH   8   9
ENDBRANCH   7   8
BRANCH   7  12
ATOM     12  N1  UNL     1      -1.148  -1.711  -0.991  1.00  0.00     0.249 N   
ATOM     13  H11 UNL     1      -0.659  -2.479  -1.471  1.00  0.00     0.199 HD  
ATOM     14  H12 UNL     1      -2.145  -1.808  -1.194  1.00  0.00     0.199 HD  
BRANCH  12  15
ATOM     15  C6  UNL     1      -0.669  -0.428  -1.596  1.00  0.00     0.164 C   
BRANCH  15  16
ATOM     16  C7  UNL     1      -1.441   0.764  -1.102  1.00  0.00    -0.002 A   
ATOM     17  C8  UNL     1      -2.743   1.029  -1.588  1.00  0.00     0.012 A   
ATOM     18  C12 UNL     1      -0.886   1.604  -0.121  1.00  0.00     0.045 A   
ATOM     19  C9  UNL     1      -3.484   2.112  -1.103  1.00  0.00     0.037 A   
ATOM     20  C11 UNL     1      -1.641   2.663   0.335  1.00  0.00     0.109 A   
ATOM     21  C10 UNL     1      -2.904   2.909  -0.141  1.00  0.00     0.108 A   
ATOM     22  O1  UNL     1      -1.255   3.562   1.278  1.00  0.00    -0.316 OA  
ATOM     23  O2  UNL     1      -3.474   3.996   0.441  1.00  0.00    -0.316 OA  
ATOM     24  C13 UNL     1      -2.416   4.424   1.324  1.00  0.00     0.337 C   
ENDBRANCH  15  16
ENDBRANCH  12  15
ENDBRANCH   7  12
ENDBRANCH   1   7
BRANCH   3  25
ATOM     25  C16 UNL     1       3.937  -1.286   1.761  1.00  0.00     0.170 C   
BRANCH  25  26
ATOM     26  C17 UNL     1       4.755  -0.574   0.672  1.00  0.00     0.165 C   
BRANCH  26  27
ATOM     27  O3  UNL     1       5.967  -0.095   1.260  1.00  0.00    -0.387 OA  
ATOM     28  H24 UNL     1       6.449   0.403   0.574  1.00  0.00     0.211 HD  
ENDBRANCH  26  27
BRANCH  26  29
ATOM     29  C18 UNL     1       4.008   0.577   0.038  1.00  0.00     0.000 A   
ATOM     30  C19 UNL     1       3.933   1.843   0.627  1.00  0.00     0.009 A   
ATOM     31  C22 UNL     1       3.300   0.385  -1.147  1.00  0.00     0.117 A   
ATOM     32  C20 UNL     1       3.189   2.848   0.014  1.00  0.00     0.020 A   
ATOM     33  N3  UNL     1       2.527   1.326  -1.737  1.00  0.00    -0.264 NA  
ATOM     34  C21 UNL     1       2.516   2.548  -1.158  1.00  0.00     0.111 A   
ENDBRANCH  26  29
ENDBRANCH  25  26
ENDBRANCH   3  25
TORSDOF 10
