REMARK SMILES CC(C)C[C@H]([NH2+]Cc1ccc2c(c1)OCO2)c1cn(C[C@@H](O)c2cccnc2)nn1
REMARK SMILES IDX 17 1 18 2 19 3 29 4 30 5 5 7 4 8 2 9 1 10 3 11 6 12 7 15
REMARK SMILES IDX 8 16 9 17 13 18 10 19 12 20 11 21 14 22 16 23 15 24 20 25
REMARK SMILES IDX 21 26 22 27 23 29 24 30 28 31 25 32 27 33 26 34
REMARK H PARENT 18 6 6 13 6 14 22 28
ROOT
ATOM     1   C14 UNL     1       0.086   1.739  -0.364  1.00  0.00     0.127 A   
ATOM     2   C15 UNL     1      -0.335   2.590   0.637  1.00  0.00     0.045 A   
ATOM     3   N2  UNL     1      -1.653   2.808   0.338  1.00  0.00    -0.209 N   
ATOM     4   N4  UNL     1      -1.957   2.313  -0.874  1.00  0.00    -0.076 NA  
ATOM     5   N5  UNL     1      -0.900   1.644  -1.310  1.00  0.00    -0.132 NA  
ATOM     6   H20 UNL     1       0.107   2.900   1.574  1.00  0.00     0.083 HD  
ENDROOT
BRANCH   1   7
ATOM     7   C5  UNL     1       1.297   0.870  -0.425  1.00  0.00     0.114 C   
BRANCH   7   8
ATOM     8   C4  UNL     1       2.128   0.996  -1.716  1.00  0.00     0.064 C   
BRANCH   8   9
ATOM     9   C2  UNL     1       2.993   2.267  -1.878  1.00  0.00    -0.012 C   
ATOM     10  C1  UNL     1       2.180   3.549  -2.039  1.00  0.00     0.007 C   
ATOM     11  C3  UNL     1       4.024   2.423  -0.760  1.00  0.00     0.007 C   
ENDBRANCH   8   9
ENDBRANCH   7   8
BRANCH   7  12
ATOM     12  N1  UNL     1       0.934  -0.586  -0.199  1.00  0.00     0.249 N   
ATOM     13  H11 UNL     1       1.786  -1.146  -0.104  1.00  0.00     0.199 HD  
ATOM     14  H12 UNL     1       0.453  -0.659   0.720  1.00  0.00     0.199 HD  
BRANCH  12  15
ATOM     15  C6  UNL     1       0.030  -1.246  -1.189  1.00  0.00     0.164 C   
BRANCH  15  16
ATOM     16  C7  UNL     1       0.149  -2.748  -1.119  1.00  0.00    -0.002 A   
ATOM     17  C8  UNL     1       0.715  -3.469  -2.198  1.00  0.00     0.012 A   
ATOM     18  C12 UNL     1      -0.289  -3.445   0.020  1.00  0.00     0.045 A   
ATOM     19  C9  UNL     1       0.840  -4.861  -2.148  1.00  0.00     0.037 A   
ATOM     20  C11 UNL     1      -0.141  -4.816   0.043  1.00  0.00     0.109 A   
ATOM     21  C10 UNL     1       0.404  -5.505  -1.012  1.00  0.00     0.108 A   
ATOM     22  O1  UNL     1      -0.496  -5.631   1.070  1.00  0.00    -0.316 OA  
ATOM     23  O2  UNL     1       0.453  -6.842  -0.786  1.00  0.00    -0.316 OA  
ATOM     24  C13 UNL     1      -0.150  -6.923   0.523  1.00  0.00     0.337 C   
ENDBRANCH  15  16
ENDBRANCH  12  15
ENDBRANCH   7  12
ENDBRANCH   1   7
BRANCH   3  25
ATOM     25  C16 UNL     1      -2.701   3.223   1.257  1.00  0.00     0.170 C   
BRANCH  25  26
ATOM     26  C17 UNL     1      -3.356   2.039   2.017  1.00  0.00     0.165 C   
BRANCH  26  27
ATOM     27  O3  UNL     1      -4.229   1.292   1.170  1.00  0.00    -0.387 OA  
ATOM     28  H24 UNL     1      -4.949   1.877   0.874  1.00  0.00     0.211 HD  
ENDBRANCH  26  27
BRANCH  26  29
ATOM     29  C18 UNL     1      -2.339   1.095   2.624  1.00  0.00     0.000 A   
ATOM     30  C19 UNL     1      -1.777   1.323   3.882  1.00  0.00     0.009 A   
ATOM     31  C22 UNL     1      -1.822   0.032   1.883  1.00  0.00     0.117 A   
ATOM     32  C20 UNL     1      -0.735   0.510   4.327  1.00  0.00     0.020 A   
ATOM     33  N3  UNL     1      -0.730  -0.701   2.231  1.00  0.00    -0.264 NA  
ATOM     34  C21 UNL     1      -0.248  -0.471   3.477  1.00  0.00     0.111 A   
ENDBRANCH  26  29
ENDBRANCH  25  26
ENDBRANCH   3  25
TORSDOF 10
