REMARK SMILES COc1nc(Cl)ccc1Cn1cc([C@@H]([NH2+]Cc2ccc3c(c2)OCO3)C(C)C)nn1
REMARK SMILES IDX 11 1 12 2 13 3 29 4 30 5 10 7 9 8 3 9 4 10 5 11 8 12 7 13
REMARK SMILES IDX 6 14 2 15 1 16 14 17 15 18 16 21 17 22 18 23 22 24 19 25
REMARK SMILES IDX 21 26 20 27 23 28 25 29 24 30 26 31 27 32 28 33
REMARK H PARENT 12 6 15 19 15 20
ROOT
ATOM     1   N2  UNL     1       0.041  -0.147  -1.799  1.00  0.00    -0.208 N   
ATOM     2   C8  UNL     1      -0.391   0.846  -0.964  1.00  0.00     0.046 A   
ATOM     3   C9  UNL     1       0.771   1.398  -0.475  1.00  0.00     0.127 A   
ATOM     4   N4  UNL     1       1.846   0.738  -1.016  1.00  0.00    -0.132 NA  
ATOM     5   N5  UNL     1       1.388  -0.202  -1.826  1.00  0.00    -0.076 NA  
ATOM     6   H8  UNL     1      -1.440   1.046  -0.796  1.00  0.00     0.083 HD  
ENDROOT
BRANCH   1   7
ATOM     7   C7  UNL     1      -0.752  -1.036  -2.630  1.00  0.00     0.174 C   
BRANCH   7   8
ATOM     8   C6  UNL     1      -1.147  -2.278  -1.883  1.00  0.00     0.021 A   
ATOM     9   C2  UNL     1      -2.308  -2.330  -1.112  1.00  0.00     0.173 A   
ATOM     10  N1  UNL     1      -2.707  -3.417  -0.423  1.00  0.00    -0.212 NA  
ATOM     11  C3  UNL     1      -1.917  -4.505  -0.507  1.00  0.00     0.132 A   
ATOM     12  C5  UNL     1      -0.347  -3.427  -1.925  1.00  0.00     0.013 A   
ATOM     13  C4  UNL     1      -0.739  -4.565  -1.227  1.00  0.00     0.041 A   
ATOM     14  CL1 UNL     1      -2.478  -5.859   0.382  1.00  0.00    -0.062 Cl  
BRANCH   9  15
ATOM     15  O1  UNL     1      -3.074  -1.180  -1.049  1.00  0.00    -0.332 OA  
ATOM     16  C1  UNL     1      -4.297  -1.356  -0.337  1.00  0.00     0.205 C   
ENDBRANCH   9  15
ENDBRANCH   7   8
ENDBRANCH   1   7
BRANCH   3  17
ATOM     17  C10 UNL     1       1.012   2.482   0.526  1.00  0.00     0.117 C   
BRANCH  17  18
ATOM     18  N3  UNL     1       2.265   2.160   1.319  1.00  0.00     0.249 N   
ATOM     19  H10 UNL     1       2.829   1.542   0.714  1.00  0.00     0.199 HD  
ATOM     20  H11 UNL     1       2.829   3.002   1.464  1.00  0.00     0.199 HD  
BRANCH  18  21
ATOM     21  C11 UNL     1       2.064   1.482   2.631  1.00  0.00     0.164 C   
BRANCH  21  22
ATOM     22  C12 UNL     1       1.375   0.150   2.546  1.00  0.00    -0.002 A   
ATOM     23  C13 UNL     1       2.030  -0.964   1.966  1.00  0.00     0.012 A   
ATOM     24  C17 UNL     1       0.066   0.001   3.036  1.00  0.00     0.045 A   
ATOM     25  C14 UNL     1       1.392  -2.206   1.874  1.00  0.00     0.037 A   
ATOM     26  C16 UNL     1      -0.533  -1.237   2.931  1.00  0.00     0.109 A   
ATOM     27  C15 UNL     1       0.112  -2.311   2.369  1.00  0.00     0.108 A   
ATOM     28  O2  UNL     1      -1.785  -1.547   3.358  1.00  0.00    -0.316 OA  
ATOM     29  O3  UNL     1      -0.647  -3.436   2.381  1.00  0.00    -0.316 OA  
ATOM     30  C18 UNL     1      -1.847  -2.954   3.025  1.00  0.00     0.337 C   
ENDBRANCH  21  22
ENDBRANCH  18  21
ENDBRANCH  17  18
BRANCH  17  31
ATOM     31  C19 UNL     1       1.172   3.893  -0.098  1.00  0.00     0.037 C   
ATOM     32  C20 UNL     1       2.313   4.005  -1.117  1.00  0.00     0.014 C   
ATOM     33  C21 UNL     1      -0.136   4.380  -0.732  1.00  0.00     0.014 C   
ENDBRANCH  17  31
ENDBRANCH   3  17
TORSDOF 8
