REMARK SMILES O=C1CCc2ccc(-n3cc([C@@H]([NH2+]Cc4ccc5c(c4)OCO5)C4CCCC4)nn3)cc21
REMARK SMILES IDX 12 1 11 2 9 3 10 4 30 5 29 6 8 7 2 8 3 9 32 10 4 11 5 12
REMARK SMILES IDX 31 13 6 14 7 15 1 16 13 17 14 20 15 21 16 22 20 23 17 24
REMARK SMILES IDX 19 25 18 26 21 27 23 28 22 29 24 30 25 31 28 32 26 33 27 34
REMARK H PARENT 13 18 13 19
ROOT
ATOM     1   C10 UNL     1       0.435  -1.838   0.523  1.00  0.00     0.117 C   
ENDROOT
BRANCH   1   2
ATOM     2   C9  UNL     1       0.958  -0.842   1.508  1.00  0.00     0.127 A   
ATOM     3   N1  UNL     1       1.366   0.835   2.856  1.00  0.00    -0.181 N   
ATOM     4   C8  UNL     1       0.430   0.345   1.965  1.00  0.00     0.135 A   
ATOM     5   N4  UNL     1       2.425  -0.016   2.886  1.00  0.00    -0.071 NA  
ATOM     6   N3  UNL     1       2.180  -1.039   2.084  1.00  0.00    -0.131 NA  
BRANCH   3   7
ATOM     7   C7  UNL     1       1.326   2.018   3.635  1.00  0.00     0.058 A   
ATOM     8   C1  UNL     1      -0.741   5.071   4.443  1.00  0.00     0.163 C   
ATOM     9   C2  UNL     1      -0.281   6.120   5.423  1.00  0.00     0.086 C   
ATOM     10  C25 UNL     1       0.260   4.020   4.349  1.00  0.00     0.023 A   
ATOM     11  C3  UNL     1       1.079   5.614   5.941  1.00  0.00     0.044 C   
ATOM     12  C4  UNL     1       1.308   4.334   5.201  1.00  0.00    -0.037 A   
ATOM     13  C24 UNL     1       0.229   2.882   3.559  1.00  0.00     0.038 A   
ATOM     14  C5  UNL     1       2.398   3.485   5.284  1.00  0.00     0.006 A   
ATOM     15  C6  UNL     1       2.406   2.324   4.497  1.00  0.00     0.026 A   
ATOM     16  O1  UNL     1      -1.776   5.066   3.801  1.00  0.00    -0.294 OA  
ENDBRANCH   3   7
ENDBRANCH   1   2
BRANCH   1  17
ATOM     17  N2  UNL     1       1.579  -2.408  -0.291  1.00  0.00     0.249 N   
ATOM     18  H9  UNL     1       1.270  -3.226  -0.823  1.00  0.00     0.199 HD  
ATOM     19  H10 UNL     1       2.284  -2.734   0.385  1.00  0.00     0.199 HD  
BRANCH  17  20
ATOM     20  C11 UNL     1       2.260  -1.466  -1.230  1.00  0.00     0.164 C   
BRANCH  20  21
ATOM     21  C12 UNL     1       1.359  -0.985  -2.333  1.00  0.00    -0.002 A   
ATOM     22  C13 UNL     1       0.938   0.366  -2.372  1.00  0.00     0.012 A   
ATOM     23  C17 UNL     1       0.906  -1.878  -3.320  1.00  0.00     0.045 A   
ATOM     24  C14 UNL     1       0.072   0.822  -3.372  1.00  0.00     0.037 A   
ATOM     25  C16 UNL     1       0.050  -1.397  -4.289  1.00  0.00     0.109 A   
ATOM     26  C15 UNL     1      -0.356  -0.086  -4.314  1.00  0.00     0.108 A   
ATOM     27  O2  UNL     1      -0.484  -2.127  -5.303  1.00  0.00    -0.316 OA  
ATOM     28  O3  UNL     1      -1.195   0.176  -5.349  1.00  0.00    -0.316 OA  
ATOM     29  C18 UNL     1      -1.253  -1.115  -5.993  1.00  0.00     0.337 C   
ENDBRANCH  20  21
ENDBRANCH  17  20
ENDBRANCH   1  17
BRANCH   1  30
ATOM     30  C19 UNL     1      -0.290  -3.009   1.219  1.00  0.00     0.043 C   
ATOM     31  C20 UNL     1      -0.879  -4.047   0.256  1.00  0.00     0.010 C   
ATOM     32  C23 UNL     1      -1.531  -2.576   2.006  1.00  0.00     0.010 C   
ATOM     33  C21 UNL     1      -1.965  -4.766   1.053  1.00  0.00     0.001 C   
ATOM     34  C22 UNL     1      -2.277  -3.879   2.254  1.00  0.00     0.001 C   
ENDBRANCH   1  30
TORSDOF 6
