REMARK SMILES O[C@@H](Cn1cc([C@@H]([NH2+]Cc2ccc3c(c2)OCO3)C2CCCCC2)nn1)c1ccc(F)cc1
REMARK SMILES IDX 4 1 5 2 6 3 25 4 26 5 3 7 2 8 1 9 27 11 28 12 33 13 29 14
REMARK SMILES IDX 32 15 30 16 31 17 7 18 8 19 9 22 10 23 11 24 15 25 12 26
REMARK SMILES IDX 14 27 13 28 16 29 18 30 17 31 19 32 20 33 24 34 21 35 23 36
REMARK SMILES IDX 22 37
REMARK H PARENT 5 6 1 10 8 20 8 21
ROOT
ATOM     1   N1  UNL     1      -1.175  -1.425   2.714  1.00  0.00    -0.209 N   
ATOM     2   C3  UNL     1      -1.298  -2.093   1.527  1.00  0.00     0.045 A   
ATOM     3   C4  UNL     1      -0.014  -2.117   1.030  1.00  0.00     0.127 A   
ATOM     4   N3  UNL     1       0.834  -1.535   1.936  1.00  0.00    -0.132 NA  
ATOM     5   N4  UNL     1       0.113  -1.120   2.962  1.00  0.00    -0.076 NA  
ATOM     6   H5  UNL     1      -2.257  -2.409   1.140  1.00  0.00     0.083 HD  
ENDROOT
BRANCH   1   7
ATOM     7   C2  UNL     1      -2.216  -0.966   3.611  1.00  0.00     0.170 C   
BRANCH   7   8
ATOM     8   C1  UNL     1      -3.223   0.001   2.960  1.00  0.00     0.164 C   
BRANCH   8   9
ATOM     9   O1  UNL     1      -4.167  -0.769   2.204  1.00  0.00    -0.387 OA  
ATOM     10  H1  UNL     1      -4.999  -0.259   2.194  1.00  0.00     0.211 HD  
ENDBRANCH   8   9
BRANCH   8  11
ATOM     11  C20 UNL     1      -2.599   1.088   2.098  1.00  0.00    -0.018 A   
ATOM     12  C21 UNL     1      -2.911   1.224   0.731  1.00  0.00     0.009 A   
ATOM     13  C25 UNL     1      -1.679   1.990   2.665  1.00  0.00     0.009 A   
ATOM     14  C22 UNL     1      -2.310   2.217  -0.045  1.00  0.00     0.039 A   
ATOM     15  C24 UNL     1      -1.070   2.976   1.884  1.00  0.00     0.039 A   
ATOM     16  C23 UNL     1      -1.389   3.078   0.537  1.00  0.00     0.123 A   
ATOM     17  F1  UNL     1      -0.791   4.007  -0.219  1.00  0.00    -0.207 F   
ENDBRANCH   8  11
ENDBRANCH   7   8
ENDBRANCH   1   7
BRANCH   3  18
ATOM     18  C5  UNL     1       0.522  -2.527  -0.306  1.00  0.00     0.117 C   
BRANCH  18  19
ATOM     19  N2  UNL     1       1.438  -1.420  -0.783  1.00  0.00     0.249 N   
ATOM     20  H7  UNL     1       2.040  -1.704  -1.558  1.00  0.00     0.199 HD  
ATOM     21  H8  UNL     1       2.068  -1.208   0.007  1.00  0.00     0.199 HD  
BRANCH  19  22
ATOM     22  C6  UNL     1       0.756  -0.146  -1.153  1.00  0.00     0.164 C   
BRANCH  22  23
ATOM     23  C7  UNL     1       1.764   0.940  -1.399  1.00  0.00    -0.002 A   
ATOM     24  C8  UNL     1       2.231   1.208  -2.706  1.00  0.00     0.012 A   
ATOM     25  C12 UNL     1       2.281   1.669  -0.313  1.00  0.00     0.045 A   
ATOM     26  C9  UNL     1       3.198   2.193  -2.933  1.00  0.00     0.037 A   
ATOM     27  C11 UNL     1       3.235   2.630  -0.570  1.00  0.00     0.109 A   
ATOM     28  C10 UNL     1       3.681   2.884  -1.843  1.00  0.00     0.108 A   
ATOM     29  O2  UNL     1       3.843   3.413   0.360  1.00  0.00    -0.316 OA  
ATOM     30  O3  UNL     1       4.627   3.859  -1.875  1.00  0.00    -0.316 OA  
ATOM     31  C13 UNL     1       4.713   4.206  -0.475  1.00  0.00     0.337 C   
ENDBRANCH  22  23
ENDBRANCH  19  22
ENDBRANCH  18  19
BRANCH  18  32
ATOM     32  C14 UNL     1       1.316  -3.866  -0.249  1.00  0.00     0.043 C   
ATOM     33  C15 UNL     1       1.889  -4.316  -1.611  1.00  0.00     0.010 C   
ATOM     34  C19 UNL     1       0.469  -5.031   0.313  1.00  0.00     0.010 C   
ATOM     35  C16 UNL     1       0.804  -4.749  -2.597  1.00  0.00     0.001 C   
ATOM     36  C18 UNL     1      -0.637  -5.473  -0.644  1.00  0.00     0.001 C   
ATOM     37  C17 UNL     1      -0.077  -5.849  -2.014  1.00  0.00     0.000 C   
ENDBRANCH  18  32
ENDBRANCH   3  18
TORSDOF 9
