REMARK SMILES O[C@H](Cn1cc([C@@H]([NH2+]Cc2ccc3c(c2)OCO3)C2CCCCC2)nn1)c1ccc(F)cc1
REMARK SMILES IDX 4 1 5 2 6 3 25 4 26 5 3 7 2 8 1 9 27 11 28 12 33 13 29 14
REMARK SMILES IDX 32 15 30 16 31 17 7 18 8 19 9 22 10 23 11 24 15 25 12 26
REMARK SMILES IDX 14 27 13 28 16 29 18 30 17 31 19 32 20 33 24 34 21 35 23 36
REMARK SMILES IDX 22 37
REMARK H PARENT 5 6 1 10 8 20 8 21
ROOT
ATOM     1   N1  UNL     1      -0.326   0.343   2.753  1.00  0.00    -0.209 N   
ATOM     2   C3  UNL     1      -0.492   0.842   1.492  1.00  0.00     0.045 A   
ATOM     3   C4  UNL     1      -1.708   0.337   1.092  1.00  0.00     0.127 A   
ATOM     4   N3  UNL     1      -2.220  -0.448   2.093  1.00  0.00    -0.132 NA  
ATOM     5   N4  UNL     1      -1.358  -0.449   3.097  1.00  0.00    -0.076 NA  
ATOM     6   H5  UNL     1       0.247   1.474   1.019  1.00  0.00     0.083 HD  
ENDROOT
BRANCH   1   7
ATOM     7   C2  UNL     1       0.770   0.574   3.674  1.00  0.00     0.170 C   
BRANCH   7   8
ATOM     8   C1  UNL     1       1.894  -0.445   3.472  1.00  0.00     0.164 C   
BRANCH   8   9
ATOM     9   O1  UNL     1       2.554  -0.196   2.222  1.00  0.00    -0.387 OA  
ATOM     10  H1  UNL     1       3.462  -0.551   2.299  1.00  0.00     0.211 HD  
ENDBRANCH   8   9
BRANCH   8  11
ATOM     11  C20 UNL     1       2.922  -0.397   4.586  1.00  0.00    -0.018 A   
ATOM     12  C21 UNL     1       3.664   0.777   4.840  1.00  0.00     0.009 A   
ATOM     13  C25 UNL     1       3.154  -1.537   5.379  1.00  0.00     0.009 A   
ATOM     14  C22 UNL     1       4.604   0.808   5.872  1.00  0.00     0.039 A   
ATOM     15  C24 UNL     1       4.097  -1.502   6.410  1.00  0.00     0.039 A   
ATOM     16  C23 UNL     1       4.809  -0.329   6.651  1.00  0.00     0.123 A   
ATOM     17  F1  UNL     1       5.718  -0.300   7.633  1.00  0.00    -0.207 F   
ENDBRANCH   8  11
ENDBRANCH   7   8
ENDBRANCH   1   7
BRANCH   3  18
ATOM     18  C5  UNL     1      -2.444   0.453  -0.207  1.00  0.00     0.117 C   
BRANCH  18  19
ATOM     19  N2  UNL     1      -3.084  -0.891  -0.513  1.00  0.00     0.249 N   
ATOM     20  H7  UNL     1      -3.595  -1.165   0.339  1.00  0.00     0.199 HD  
ATOM     21  H8  UNL     1      -3.769  -0.811  -1.266  1.00  0.00     0.199 HD  
BRANCH  19  22
ATOM     22  C6  UNL     1      -2.149  -2.009  -0.845  1.00  0.00     0.164 C   
BRANCH  22  23
ATOM     23  C7  UNL     1      -1.389  -1.775  -2.123  1.00  0.00    -0.002 A   
ATOM     24  C8  UNL     1       0.008  -1.551  -2.088  1.00  0.00     0.012 A   
ATOM     25  C12 UNL     1      -2.060  -1.750  -3.358  1.00  0.00     0.045 A   
ATOM     26  C9  UNL     1       0.728  -1.292  -3.262  1.00  0.00     0.037 A   
ATOM     27  C11 UNL     1      -1.320  -1.490  -4.495  1.00  0.00     0.109 A   
ATOM     28  C10 UNL     1       0.033  -1.263  -4.449  1.00  0.00     0.108 A   
ATOM     29  O2  UNL     1      -1.813  -1.439  -5.764  1.00  0.00    -0.316 OA  
ATOM     30  O3  UNL     1       0.564  -1.033  -5.680  1.00  0.00    -0.316 OA  
ATOM     31  C13 UNL     1      -0.609  -1.155  -6.515  1.00  0.00     0.337 C   
ENDBRANCH  22  23
ENDBRANCH  19  22
ENDBRANCH  18  19
BRANCH  18  32
ATOM     32  C14 UNL     1      -3.561   1.543  -0.180  1.00  0.00     0.043 C   
ATOM     33  C15 UNL     1      -4.289   1.720  -1.535  1.00  0.00     0.010 C   
ATOM     34  C19 UNL     1      -3.041   2.935   0.250  1.00  0.00     0.010 C   
ATOM     35  C16 UNL     1      -3.397   2.345  -2.611  1.00  0.00     0.001 C   
ATOM     36  C18 UNL     1      -2.124   3.569  -0.796  1.00  0.00     0.001 C   
ATOM     37  C17 UNL     1      -2.812   3.677  -2.153  1.00  0.00     0.000 C   
ENDBRANCH  18  32
ENDBRANCH   3  18
TORSDOF 9
