REMARK SMILES CC(C)C[C@H]([NH2+]Cc1ccc2c(c1)OCO2)c1cn(CCc2ncccn2)nn1
REMARK SMILES IDX 17 1 18 2 19 3 28 4 29 5 5 7 4 8 2 9 1 10 3 11 6 12 7 15
REMARK SMILES IDX 8 16 9 17 13 18 10 19 12 20 11 21 14 22 16 23 15 24 20 25
REMARK SMILES IDX 21 26 22 27 23 28 27 29 24 30 26 31 25 32
REMARK H PARENT 18 6 6 13 6 14
ROOT
ATOM     1   C14 UNL     1       0.006   0.949  -0.865  1.00  0.00     0.127 A   
ATOM     2   C15 UNL     1      -0.637   0.578  -2.024  1.00  0.00     0.045 A   
ATOM     3   N2  UNL     1       0.282  -0.206  -2.666  1.00  0.00    -0.212 N   
ATOM     4   N5  UNL     1       1.435  -0.261  -1.978  1.00  0.00    -0.076 NA  
ATOM     5   N6  UNL     1       1.278   0.439  -0.868  1.00  0.00    -0.132 NA  
ATOM     6   H20 UNL     1      -1.636   0.733  -2.405  1.00  0.00     0.083 HD  
ENDROOT
BRANCH   1   7
ATOM     7   C5  UNL     1      -0.489   1.638   0.361  1.00  0.00     0.114 C   
BRANCH   7   8
ATOM     8   C4  UNL     1       0.106   3.045   0.542  1.00  0.00     0.064 C   
BRANCH   8   9
ATOM     9   C2  UNL     1      -0.259   4.053  -0.568  1.00  0.00    -0.012 C   
ATOM     10  C1  UNL     1       0.451   5.385  -0.309  1.00  0.00     0.007 C   
ATOM     11  C3  UNL     1      -1.767   4.285  -0.673  1.00  0.00     0.007 C   
ENDBRANCH   8   9
ENDBRANCH   7   8
BRANCH   7  12
ATOM     12  N1  UNL     1      -0.076   0.817   1.562  1.00  0.00     0.249 N   
ATOM     13  H11 UNL     1       0.920   0.588   1.420  1.00  0.00     0.199 HD  
ATOM     14  H12 UNL     1      -0.129   1.355   2.432  1.00  0.00     0.199 HD  
BRANCH  12  15
ATOM     15  C6  UNL     1      -0.809  -0.471   1.721  1.00  0.00     0.164 C   
BRANCH  15  16
ATOM     16  C7  UNL     1      -0.129  -1.353   2.729  1.00  0.00    -0.002 A   
ATOM     17  C8  UNL     1      -0.568  -1.387   4.073  1.00  0.00     0.012 A   
ATOM     18  C12 UNL     1       0.982  -2.124   2.341  1.00  0.00     0.045 A   
ATOM     19  C9  UNL     1       0.081  -2.190   5.018  1.00  0.00     0.037 A   
ATOM     20  C11 UNL     1       1.595  -2.906   3.296  1.00  0.00     0.109 A   
ATOM     21  C10 UNL     1       1.159  -2.938   4.598  1.00  0.00     0.108 A   
ATOM     22  O1  UNL     1       2.666  -3.716   3.088  1.00  0.00    -0.316 OA  
ATOM     23  O2  UNL     1       1.902  -3.768   5.374  1.00  0.00    -0.316 OA  
ATOM     24  C13 UNL     1       2.862  -4.258   4.414  1.00  0.00     0.337 C   
ENDBRANCH  15  16
ENDBRANCH  12  15
ENDBRANCH   7  12
ENDBRANCH   1   7
BRANCH   3  25
ATOM     25  C16 UNL     1       0.102  -0.989  -3.871  1.00  0.00     0.142 C   
BRANCH  25  26
ATOM     26  C17 UNL     1      -0.878  -2.140  -3.685  1.00  0.00     0.098 C   
BRANCH  26  27
ATOM     27  C18 UNL     1      -0.371  -3.146  -2.692  1.00  0.00     0.129 A   
ATOM     28  N3  UNL     1      -0.894  -3.128  -1.446  1.00  0.00    -0.241 NA  
ATOM     29  N4  UNL     1       0.584  -3.992  -3.114  1.00  0.00    -0.241 NA  
ATOM     30  C19 UNL     1      -0.432  -4.077  -0.605  1.00  0.00     0.115 A   
ATOM     31  C21 UNL     1       1.022  -4.900  -2.222  1.00  0.00     0.115 A   
ATOM     32  C20 UNL     1       0.539  -4.991  -0.939  1.00  0.00     0.040 A   
ENDBRANCH  26  27
ENDBRANCH  25  26
ENDBRANCH   3  25
TORSDOF 9
