REMARK SMILES Oc1c(Cl)cccc1Cn1cc([C@@H]([NH2+]Cc2ccc3c(c2)OCO3)C2CCCCC2)nn1
REMARK SMILES IDX 10 1 11 2 12 3 31 4 32 5 9 7 8 8 2 9 3 10 5 11 7 12 6 13
REMARK SMILES IDX 4 14 1 15 13 17 14 18 15 21 16 22 17 23 21 24 18 25 20 26
REMARK SMILES IDX 19 27 22 28 24 29 23 30 25 31 26 32 30 33 27 34 29 35 28 36
REMARK H PARENT 11 6 1 16 14 19 14 20
ROOT
ATOM     1   N1  UNL     1      -2.773  -0.214   1.443  1.00  0.00    -0.208 N   
ATOM     2   C8  UNL     1      -1.701  -1.050   1.283  1.00  0.00     0.046 A   
ATOM     3   C9  UNL     1      -1.089  -0.593   0.138  1.00  0.00     0.127 A   
ATOM     4   N3  UNL     1      -1.848   0.416  -0.402  1.00  0.00    -0.132 NA  
ATOM     5   N4  UNL     1      -2.884   0.626   0.394  1.00  0.00    -0.076 NA  
ATOM     6   H7  UNL     1      -1.464  -1.817   2.006  1.00  0.00     0.083 HD  
ENDROOT
BRANCH   1   7
ATOM     7   C7  UNL     1      -3.712  -0.157   2.549  1.00  0.00     0.172 C   
BRANCH   7   8
ATOM     8   C6  UNL     1      -3.277   0.865   3.567  1.00  0.00     0.003 A   
ATOM     9   C1  UNL     1      -2.317   0.564   4.541  1.00  0.00     0.095 A   
ATOM     10  C2  UNL     1      -1.905   1.534   5.463  1.00  0.00     0.071 A   
ATOM     11  C3  UNL     1      -2.446   2.816   5.422  1.00  0.00     0.023 A   
ATOM     12  C5  UNL     1      -3.806   2.165   3.530  1.00  0.00     0.008 A   
ATOM     13  C4  UNL     1      -3.395   3.131   4.452  1.00  0.00     0.002 A   
ATOM     14  CL1 UNL     1      -0.710   1.152   6.647  1.00  0.00    -0.081 Cl  
BRANCH   9  15
ATOM     15  O1  UNL     1      -1.782  -0.700   4.563  1.00  0.00    -0.359 OA  
ATOM     16  H1  UNL     1      -1.210  -0.745   5.356  1.00  0.00     0.218 HD  
ENDBRANCH   9  15
ENDBRANCH   7   8
ENDBRANCH   1   7
BRANCH   3  17
ATOM     17  C10 UNL     1       0.163  -1.022  -0.562  1.00  0.00     0.117 C   
BRANCH  17  18
ATOM     18  N2  UNL     1       0.152  -0.444  -1.958  1.00  0.00     0.249 N   
ATOM     19  H9  UNL     1      -0.835  -0.401  -2.255  1.00  0.00     0.199 HD  
ATOM     20  H10 UNL     1       0.412   0.548  -1.924  1.00  0.00     0.199 HD  
BRANCH  18  21
ATOM     21  C11 UNL     1       0.927  -1.159  -2.996  1.00  0.00     0.164 C   
BRANCH  21  22
ATOM     22  C12 UNL     1       0.934  -0.382  -4.281  1.00  0.00    -0.002 A   
ATOM     23  C13 UNL     1       1.901   0.629  -4.493  1.00  0.00     0.012 A   
ATOM     24  C17 UNL     1      -0.052  -0.616  -5.256  1.00  0.00     0.045 A   
ATOM     25  C14 UNL     1       1.895   1.394  -5.665  1.00  0.00     0.037 A   
ATOM     26  C16 UNL     1      -0.029   0.158  -6.398  1.00  0.00     0.109 A   
ATOM     27  C15 UNL     1       0.917   1.134  -6.597  1.00  0.00     0.108 A   
ATOM     28  O2  UNL     1      -0.903   0.063  -7.432  1.00  0.00    -0.316 OA  
ATOM     29  O3  UNL     1       0.757   1.778  -7.782  1.00  0.00    -0.316 OA  
ATOM     30  C18 UNL     1      -0.391   1.087  -8.317  1.00  0.00     0.337 C   
ENDBRANCH  21  22
ENDBRANCH  18  21
ENDBRANCH  17  18
BRANCH  17  31
ATOM     31  C19 UNL     1       1.476  -0.609   0.160  1.00  0.00     0.043 C   
ATOM     32  C20 UNL     1       1.570   0.892   0.499  1.00  0.00     0.010 C   
ATOM     33  C24 UNL     1       1.720  -1.449   1.431  1.00  0.00     0.010 C   
ATOM     34  C21 UNL     1       2.907   1.236   1.161  1.00  0.00     0.001 C   
ATOM     35  C23 UNL     1       3.062  -1.107   2.080  1.00  0.00     0.001 C   
ATOM     36  C22 UNL     1       3.167   0.381   2.397  1.00  0.00     0.000 C   
ENDBRANCH  17  31
ENDBRANCH   3  17
TORSDOF 8
