REMARK SMILES COc1cccc(C)c1Cn1cc([C@H](CC(C)C)[NH2+]Cc2ccc3c(c2)OCO3)nn1
REMARK SMILES IDX 11 1 12 2 13 3 30 4 31 5 10 7 9 8 3 9 4 10 5 11 7 12 6 13
REMARK SMILES IDX 8 14 2 15 1 16 14 17 15 18 16 19 17 20 18 21 19 22 20 25
REMARK SMILES IDX 21 26 22 27 26 28 23 29 25 30 24 31 27 32 29 33 28 34
REMARK H PARENT 12 6 19 23 19 24
ROOT
ATOM     1   N1  UNL     1      -1.973   0.707   2.053  1.00  0.00    -0.208 N   
ATOM     2   C10 UNL     1      -1.658   0.690   0.723  1.00  0.00     0.046 A   
ATOM     3   C11 UNL     1      -2.501  -0.260   0.192  1.00  0.00     0.127 A   
ATOM     4   N3  UNL     1      -3.327  -0.732   1.176  1.00  0.00    -0.132 NA  
ATOM     5   N4  UNL     1      -3.000  -0.130   2.309  1.00  0.00    -0.076 NA  
ATOM     6   H12 UNL     1      -0.857   1.286   0.309  1.00  0.00     0.083 HD  
ENDROOT
BRANCH   1   7
ATOM     7   C9  UNL     1      -1.324   1.447   3.124  1.00  0.00     0.172 C   
BRANCH   7   8
ATOM     8   C8  UNL     1      -0.035   0.768   3.547  1.00  0.00     0.005 A   
ATOM     9   C2  UNL     1       1.174   1.092   2.886  1.00  0.00     0.080 A   
ATOM     10  C3  UNL     1       2.363   0.446   3.236  1.00  0.00     0.034 A   
ATOM     11  C4  UNL     1       2.370  -0.513   4.245  1.00  0.00     0.003 A   
ATOM     12  C6  UNL     1      -0.018  -0.204   4.578  1.00  0.00    -0.044 A   
ATOM     13  C5  UNL     1       1.192  -0.834   4.911  1.00  0.00     0.004 A   
ATOM     14  C7  UNL     1      -1.255  -0.593   5.345  1.00  0.00     0.045 C   
BRANCH   9  15
ATOM     15  O1  UNL     1       1.084   2.033   1.891  1.00  0.00    -0.349 OA  
ATOM     16  C1  UNL     1       2.303   2.631   1.456  1.00  0.00     0.203 C   
ENDBRANCH   9  15
ENDBRANCH   7   8
ENDBRANCH   1   7
BRANCH   3  17
ATOM     17  C12 UNL     1      -2.544  -0.859  -1.169  1.00  0.00     0.114 C   
BRANCH  17  18
ATOM     18  C13 UNL     1      -3.753  -0.379  -1.995  1.00  0.00     0.064 C   
BRANCH  18  19
ATOM     19  C14 UNL     1      -3.778   1.135  -2.298  1.00  0.00    -0.012 C   
ATOM     20  C15 UNL     1      -2.562   1.590  -3.106  1.00  0.00     0.007 C   
ATOM     21  C16 UNL     1      -5.061   1.488  -3.056  1.00  0.00     0.007 C   
ENDBRANCH  18  19
ENDBRANCH  17  18
BRANCH  17  22
ATOM     22  N2  UNL     1      -2.645  -2.372  -1.083  1.00  0.00     0.249 N   
ATOM     23  H23 UNL     1      -2.717  -2.765  -2.025  1.00  0.00     0.199 HD  
ATOM     24  H24 UNL     1      -3.526  -2.578  -0.593  1.00  0.00     0.199 HD  
BRANCH  22  25
ATOM     25  C17 UNL     1      -1.559  -3.078  -0.332  1.00  0.00     0.164 C   
BRANCH  25  26
ATOM     26  C18 UNL     1      -0.173  -2.763  -0.820  1.00  0.00    -0.002 A   
ATOM     27  C19 UNL     1       0.721  -2.040   0.008  1.00  0.00     0.012 A   
ATOM     28  C23 UNL     1       0.241  -3.158  -2.103  1.00  0.00     0.045 A   
ATOM     29  C20 UNL     1       2.002  -1.700  -0.438  1.00  0.00     0.037 A   
ATOM     30  C22 UNL     1       1.511  -2.806  -2.512  1.00  0.00     0.109 A   
ATOM     31  C21 UNL     1       2.366  -2.096  -1.704  1.00  0.00     0.108 A   
ATOM     32  O2  UNL     1       2.061  -3.098  -3.720  1.00  0.00    -0.316 OA  
ATOM     33  O3  UNL     1       3.561  -1.853  -2.302  1.00  0.00    -0.316 OA  
ATOM     34  C24 UNL     1       3.377  -2.519  -3.570  1.00  0.00     0.337 C   
ENDBRANCH  25  26
ENDBRANCH  22  25
ENDBRANCH  17  22
ENDBRANCH   3  17
TORSDOF 9
