REMARK SMILES CC(C)C[C@H]([NH2+]Cc1ccc2c(c1)OCO2)c1cn(Cc2ccc(O)c(Cl)c2)nn1
REMARK SMILES IDX 17 1 18 2 19 3 29 4 30 5 5 7 4 8 2 9 1 10 3 11 6 12 7 15
REMARK SMILES IDX 8 16 9 17 13 18 10 19 12 20 11 21 14 22 16 23 15 24 20 25
REMARK SMILES IDX 21 26 22 27 28 28 23 29 26 30 24 31 27 32 25 33
REMARK H PARENT 18 6 6 13 6 14 25 34
ROOT
ATOM     1   C14 UNL     1      -1.147   1.210   0.273  1.00  0.00     0.127 A   
ATOM     2   C15 UNL     1      -0.346   1.105   1.389  1.00  0.00     0.046 A   
ATOM     3   N2  UNL     1      -0.851   2.044   2.247  1.00  0.00    -0.208 N   
ATOM     4   N3  UNL     1      -1.935   2.644   1.717  1.00  0.00    -0.076 NA  
ATOM     5   N4  UNL     1      -2.114   2.156   0.501  1.00  0.00    -0.132 NA  
ATOM     6   H20 UNL     1       0.519   0.503   1.633  1.00  0.00     0.083 HD  
ENDROOT
BRANCH   1   7
ATOM     7   C5  UNL     1      -1.117   0.489  -1.038  1.00  0.00     0.114 C   
BRANCH   7   8
ATOM     8   C4  UNL     1      -0.134   1.174  -2.010  1.00  0.00     0.064 C   
BRANCH   8   9
ATOM     9   C2  UNL     1       0.085   0.476  -3.370  1.00  0.00    -0.012 C   
ATOM     10  C1  UNL     1       0.584  -0.961  -3.220  1.00  0.00     0.007 C   
ATOM     11  C3  UNL     1       1.084   1.284  -4.205  1.00  0.00     0.007 C   
ENDBRANCH   8   9
ENDBRANCH   7   8
BRANCH   7  12
ATOM     12  N1  UNL     1      -2.494   0.478  -1.658  1.00  0.00     0.249 N   
ATOM     13  H11 UNL     1      -2.850   1.442  -1.578  1.00  0.00     0.199 HD  
ATOM     14  H12 UNL     1      -2.449   0.256  -2.655  1.00  0.00     0.199 HD  
BRANCH  12  15
ATOM     15  C6  UNL     1      -3.498  -0.421  -1.014  1.00  0.00     0.164 C   
BRANCH  15  16
ATOM     16  C7  UNL     1      -3.201  -1.876  -1.249  1.00  0.00    -0.002 A   
ATOM     17  C8  UNL     1      -2.718  -2.687  -0.194  1.00  0.00     0.012 A   
ATOM     18  C12 UNL     1      -3.370  -2.434  -2.528  1.00  0.00     0.045 A   
ATOM     19  C9  UNL     1      -2.397  -4.031  -0.409  1.00  0.00     0.037 A   
ATOM     20  C11 UNL     1      -3.042  -3.762  -2.706  1.00  0.00     0.109 A   
ATOM     21  C10 UNL     1      -2.568  -4.538  -1.678  1.00  0.00     0.108 A   
ATOM     22  O1  UNL     1      -3.136  -4.449  -3.875  1.00  0.00    -0.316 OA  
ATOM     23  O2  UNL     1      -2.305  -5.812  -2.069  1.00  0.00    -0.316 OA  
ATOM     24  C13 UNL     1      -2.697  -5.762  -3.458  1.00  0.00     0.337 C   
ENDBRANCH  15  16
ENDBRANCH  12  15
ENDBRANCH   7  12
ENDBRANCH   1   7
BRANCH   3  25
ATOM     25  C16 UNL     1      -0.370   2.412   3.569  1.00  0.00     0.169 C   
BRANCH  25  26
ATOM     26  C17 UNL     1       0.938   3.160   3.484  1.00  0.00    -0.027 A   
ATOM     27  C18 UNL     1       2.127   2.576   3.951  1.00  0.00     0.008 A   
ATOM     28  C22 UNL     1       0.986   4.453   2.932  1.00  0.00     0.028 A   
ATOM     29  C19 UNL     1       3.339   3.264   3.860  1.00  0.00     0.035 A   
ATOM     30  C21 UNL     1       2.200   5.136   2.842  1.00  0.00     0.071 A   
ATOM     31  C20 UNL     1       3.371   4.539   3.306  1.00  0.00     0.090 A   
ATOM     32  CL1 UNL     1       2.236   6.712   2.147  1.00  0.00    -0.081 Cl  
BRANCH  31  33
ATOM     33  O3  UNL     1       4.585   5.162   3.239  1.00  0.00    -0.359 OA  
ATOM     34  H25 UNL     1       4.441   6.053   2.867  1.00  0.00     0.218 HD  
ENDBRANCH  31  33
ENDBRANCH  25  26
ENDBRANCH   3  25
TORSDOF 9
