REMARK SMILES Cc1cccc(N([O-])[O-])c1-n1cc([C@@H]([NH2+]Cc2ccc3c(c2)OCO3)C(C)(C)C)nn1
REMARK SMILES IDX 11 1 12 2 13 3 30 4 31 5 10 6 2 7 3 8 4 9 6 10 5 11 1 12
REMARK SMILES IDX 7 13 8 14 9 15 14 16 15 17 16 20 17 21 18 22 22 23 19 24
REMARK SMILES IDX 21 25 20 26 23 27 25 28 24 29 26 30 27 31 28 32 29 33
REMARK H PARENT 15 18 15 19
ROOT
ATOM     1   N2  UNL     1      -2.393   0.101   1.469  1.00  0.00    -0.178 N   
ATOM     2   C8  UNL     1      -1.247  -0.516   1.002  1.00  0.00     0.135 A   
ATOM     3   C9  UNL     1      -0.290   0.473   0.976  1.00  0.00     0.128 A   
ATOM     4   N4  UNL     1      -0.830   1.625   1.466  1.00  0.00    -0.131 NA  
ATOM     5   N5  UNL     1      -2.086   1.379   1.801  1.00  0.00    -0.071 NA  
ENDROOT
BRANCH   1   6
ATOM     6   C7  UNL     1      -3.713  -0.417   1.576  1.00  0.00     0.089 A   
ATOM     7   C2  UNL     1      -4.563  -0.017   2.636  1.00  0.00    -0.025 A   
ATOM     8   C3  UNL     1      -5.855  -0.579   2.723  1.00  0.00     0.005 A   
ATOM     9   C4  UNL     1      -6.308  -1.523   1.802  1.00  0.00     0.003 A   
ATOM     10  C6  UNL     1      -4.210  -1.350   0.638  1.00  0.00     0.141 A   
ATOM     11  C5  UNL     1      -5.489  -1.911   0.750  1.00  0.00     0.033 A   
ATOM     12  C1  UNL     1      -4.170   0.960   3.717  1.00  0.00     0.046 C   
BRANCH  10  13
ATOM     13  N1  UNL     1      -3.485  -1.669  -0.580  1.00  0.00     0.094 N   
ATOM     14  O1  UNL     1      -3.150  -0.723  -1.307  1.00  0.00    -0.138 OA  
ATOM     15  O2  UNL     1      -3.207  -2.857  -0.776  1.00  0.00    -0.138 OA  
ENDBRANCH  10  13
ENDBRANCH   1   6
BRANCH   3  16
ATOM     16  C10 UNL     1       1.113   0.468   0.446  1.00  0.00     0.120 C   
BRANCH  16  17
ATOM     17  N3  UNL     1       1.353   1.759  -0.314  1.00  0.00     0.250 N   
ATOM     18  H9  UNL     1       2.348   1.904  -0.490  1.00  0.00     0.199 HD  
ATOM     19  H10 UNL     1       1.040   2.523   0.301  1.00  0.00     0.199 HD  
BRANCH  17  20
ATOM     20  C11 UNL     1       0.617   1.908  -1.610  1.00  0.00     0.164 C   
BRANCH  20  21
ATOM     21  C12 UNL     1       1.055   0.913  -2.649  1.00  0.00    -0.002 A   
ATOM     22  C13 UNL     1       0.169  -0.106  -3.074  1.00  0.00     0.012 A   
ATOM     23  C17 UNL     1       2.353   0.967  -3.186  1.00  0.00     0.045 A   
ATOM     24  C14 UNL     1       0.570  -1.067  -4.008  1.00  0.00     0.037 A   
ATOM     25  C16 UNL     1       2.716   0.004  -4.104  1.00  0.00     0.109 A   
ATOM     26  C15 UNL     1       1.852  -0.986  -4.502  1.00  0.00     0.108 A   
ATOM     27  O3  UNL     1       3.931  -0.094  -4.706  1.00  0.00    -0.316 OA  
ATOM     28  O4  UNL     1       2.412  -1.830  -5.407  1.00  0.00    -0.316 OA  
ATOM     29  C18 UNL     1       3.720  -1.240  -5.562  1.00  0.00     0.337 C   
ENDBRANCH  20  21
ENDBRANCH  17  20
ENDBRANCH  16  17
BRANCH  16  30
ATOM     30  C19 UNL     1       2.216   0.264   1.543  1.00  0.00     0.010 C   
ATOM     31  C20 UNL     1       3.608   0.118   0.883  1.00  0.00     0.017 C   
ATOM     32  C21 UNL     1       1.950  -1.044   2.323  1.00  0.00     0.017 C   
ATOM     33  C22 UNL     1       2.282   1.426   2.554  1.00  0.00     0.017 C   
ENDBRANCH  16  30
ENDBRANCH   3  16
TORSDOF 7
