REMARK SMILES COc1cccc(Cn2cc([C@H](CC(C)C)[NH2+]Cc3ccc4c(c3)OCO4)nn2)c1O
REMARK SMILES IDX 9 1 10 2 11 3 28 4 29 5 8 7 7 8 3 9 4 10 30 11 5 12 6 13
REMARK SMILES IDX 2 14 1 15 31 16 12 18 13 19 14 20 15 21 16 22 17 23 18 26
REMARK SMILES IDX 19 27 20 28 24 29 21 30 23 31 22 32 25 33 27 34 26 35
REMARK H PARENT 10 6 31 17 17 24 17 25
ROOT
ATOM     1   N1  UNL     1      -2.330  -0.854  -0.369  1.00  0.00    -0.208 N   
ATOM     2   C8  UNL     1      -1.896   0.257   0.298  1.00  0.00     0.046 A   
ATOM     3   C9  UNL     1      -1.796   1.216  -0.682  1.00  0.00     0.127 A   
ATOM     4   N3  UNL     1      -2.235   0.695  -1.871  1.00  0.00    -0.132 NA  
ATOM     5   N4  UNL     1      -2.563  -0.571  -1.667  1.00  0.00    -0.076 NA  
ATOM     6   H9  UNL     1      -1.637   0.233   1.347  1.00  0.00     0.083 HD  
ENDROOT
BRANCH   1   7
ATOM     7   C7  UNL     1      -2.483  -2.204   0.146  1.00  0.00     0.172 C   
BRANCH   7   8
ATOM     8   C6  UNL     1      -1.256  -3.031  -0.138  1.00  0.00     0.004 A   
ATOM     9   C2  UNL     1       1.071  -3.636   0.339  1.00  0.00     0.105 A   
ATOM     10  C3  UNL     1       1.048  -4.558  -0.704  1.00  0.00     0.036 A   
ATOM     11  C23 UNL     1      -0.082  -2.884   0.609  1.00  0.00     0.106 A   
ATOM     12  C4  UNL     1      -0.113  -4.715  -1.467  1.00  0.00     0.003 A   
ATOM     13  C5  UNL     1      -1.254  -3.958  -1.190  1.00  0.00     0.008 A   
BRANCH   9  14
ATOM     14  O1  UNL     1       2.137  -3.366   1.159  1.00  0.00    -0.347 OA  
ATOM     15  C1  UNL     1       3.323  -4.119   0.932  1.00  0.00     0.203 C   
ENDBRANCH   9  14
BRANCH  11  16
ATOM     16  O4  UNL     1      -0.048  -1.963   1.627  1.00  0.00    -0.358 OA  
ATOM     17  H29 UNL     1       0.855  -2.037   2.003  1.00  0.00     0.218 HD  
ENDBRANCH  11  16
ENDBRANCH   7   8
ENDBRANCH   1   7
BRANCH   3  18
ATOM     18  C10 UNL     1      -1.211   2.584  -0.638  1.00  0.00     0.114 C   
BRANCH  18  19
ATOM     19  C11 UNL     1      -2.279   3.694  -0.687  1.00  0.00     0.064 C   
BRANCH  19  20
ATOM     20  C12 UNL     1      -3.265   3.708   0.500  1.00  0.00    -0.012 C   
ATOM     21  C13 UNL     1      -2.560   3.889   1.845  1.00  0.00     0.007 C   
ATOM     22  C14 UNL     1      -4.292   4.827   0.303  1.00  0.00     0.007 C   
ENDBRANCH  19  20
ENDBRANCH  18  19
BRANCH  18  23
ATOM     23  N2  UNL     1      -0.293   2.806  -1.828  1.00  0.00     0.249 N   
ATOM     24  H20 UNL     1       0.048   3.771  -1.824  1.00  0.00     0.199 HD  
ATOM     25  H21 UNL     1      -0.875   2.685  -2.668  1.00  0.00     0.199 HD  
BRANCH  23  26
ATOM     26  C15 UNL     1       0.867   1.870  -1.967  1.00  0.00     0.164 C   
BRANCH  26  27
ATOM     27  C16 UNL     1       1.771   1.840  -0.766  1.00  0.00    -0.002 A   
ATOM     28  C17 UNL     1       2.595   2.946  -0.451  1.00  0.00     0.012 A   
ATOM     29  C21 UNL     1       1.775   0.714   0.076  1.00  0.00     0.045 A   
ATOM     30  C18 UNL     1       3.403   2.935   0.692  1.00  0.00     0.037 A   
ATOM     31  C20 UNL     1       2.576   0.736   1.198  1.00  0.00     0.109 A   
ATOM     32  C19 UNL     1       3.368   1.816   1.497  1.00  0.00     0.108 A   
ATOM     33  O2  UNL     1       2.678  -0.257   2.120  1.00  0.00    -0.316 OA  
ATOM     34  O3  UNL     1       4.075   1.638   2.643  1.00  0.00    -0.316 OA  
ATOM     35  C22 UNL     1       3.656   0.309   3.022  1.00  0.00     0.337 C   
ENDBRANCH  26  27
ENDBRANCH  23  26
ENDBRANCH  18  23
ENDBRANCH   3  18
TORSDOF 10
