REMARK SMILES CC(C)[C@H]([NH2+]Cc1ccc2c(c1)OCO2)c1cn(CCCc2ccccc2)nn1
REMARK SMILES IDX 16 1 17 2 18 3 28 4 29 5 4 7 2 8 1 9 3 10 5 11 6 14 7 15
REMARK SMILES IDX 8 16 12 17 9 18 11 19 10 20 13 21 15 22 14 23 19 24 20 25
REMARK SMILES IDX 21 26 22 27 23 28 27 29 24 30 26 31 25 32
REMARK H PARENT 17 6 5 12 5 13
ROOT
ATOM     1   C13 UNL     1       1.779   0.068  -0.446  1.00  0.00     0.127 A   
ATOM     2   C14 UNL     1       2.647  -0.645  -1.245  1.00  0.00     0.045 A   
ATOM     3   N2  UNL     1       3.162  -1.585  -0.397  1.00  0.00    -0.212 N   
ATOM     4   N3  UNL     1       2.714  -1.409   0.860  1.00  0.00    -0.076 NA  
ATOM     5   N4  UNL     1       1.845  -0.412   0.840  1.00  0.00    -0.132 NA  
ATOM     6   H18 UNL     1       2.882  -0.618  -2.302  1.00  0.00     0.083 HD  
ENDROOT
BRANCH   1   7
ATOM     7   C4  UNL     1       0.781   1.127  -0.783  1.00  0.00     0.117 C   
BRANCH   7   8
ATOM     8   C2  UNL     1       1.277   2.570  -0.513  1.00  0.00     0.037 C   
ATOM     9   C1  UNL     1       1.606   2.865   0.955  1.00  0.00     0.014 C   
ATOM     10  C3  UNL     1       2.486   2.920  -1.391  1.00  0.00     0.014 C   
ENDBRANCH   7   8
BRANCH   7  11
ATOM     11  N1  UNL     1      -0.473   0.818  -0.009  1.00  0.00     0.249 N   
ATOM     12  H9  UNL     1      -0.233   0.796   0.992  1.00  0.00     0.199 HD  
ATOM     13  H10 UNL     1      -0.702  -0.167  -0.210  1.00  0.00     0.199 HD  
BRANCH  11  14
ATOM     14  C5  UNL     1      -1.675   1.643  -0.255  1.00  0.00     0.164 C   
BRANCH  14  15
ATOM     15  C6  UNL     1      -2.869   1.077   0.462  1.00  0.00    -0.002 A   
ATOM     16  C7  UNL     1      -3.837   0.320  -0.243  1.00  0.00     0.012 A   
ATOM     17  C11 UNL     1      -3.012   1.262   1.849  1.00  0.00     0.045 A   
ATOM     18  C8  UNL     1      -4.933  -0.244   0.421  1.00  0.00     0.037 A   
ATOM     19  C10 UNL     1      -4.103   0.693   2.473  1.00  0.00     0.109 A   
ATOM     20  C9  UNL     1      -5.035  -0.043   1.780  1.00  0.00     0.108 A   
ATOM     21  O1  UNL     1      -4.385   0.775   3.801  1.00  0.00    -0.316 OA  
ATOM     22  O2  UNL     1      -6.022  -0.516   2.584  1.00  0.00    -0.316 OA  
ATOM     23  C12 UNL     1      -5.619   0.023   3.865  1.00  0.00     0.337 C   
ENDBRANCH  14  15
ENDBRANCH  11  14
ENDBRANCH   7  11
ENDBRANCH   1   7
BRANCH   3  24
ATOM     24  C15 UNL     1       4.031  -2.695  -0.718  1.00  0.00     0.134 C   
BRANCH  24  25
ATOM     25  C16 UNL     1       3.336  -4.057  -0.657  1.00  0.00     0.026 C   
BRANCH  25  26
ATOM     26  C17 UNL     1       2.388  -4.340  -1.832  1.00  0.00     0.037 C   
BRANCH  26  27
ATOM     27  C18 UNL     1       1.078  -3.583  -1.858  1.00  0.00    -0.048 A   
ATOM     28  C19 UNL     1       0.650  -2.962  -3.046  1.00  0.00     0.004 A   
ATOM     29  C23 UNL     1       0.217  -3.574  -0.747  1.00  0.00     0.004 A   
ATOM     30  C20 UNL     1      -0.603  -2.345  -3.119  1.00  0.00     0.000 A   
ATOM     31  C22 UNL     1      -1.040  -2.964  -0.823  1.00  0.00     0.000 A   
ATOM     32  C21 UNL     1      -1.451  -2.355  -2.011  1.00  0.00     0.000 A   
ENDBRANCH  26  27
ENDBRANCH  25  26
ENDBRANCH  24  25
ENDBRANCH   3  24
TORSDOF 9
