REMARK SMILES CC(C)[C@H]([NH2+]Cc1ccc2c(c1)OCO2)c1cn(C[C@H](O)c2ccc(F)c(F)c2)nn1
REMARK SMILES IDX 16 1 17 2 18 3 30 4 31 5 4 7 2 8 1 9 3 10 5 11 6 14 7 15
REMARK SMILES IDX 8 16 12 17 9 18 11 19 10 20 13 21 15 22 14 23 19 24 20 25
REMARK SMILES IDX 21 26 22 28 23 29 29 30 24 31 27 32 25 33 28 34 26 35
REMARK H PARENT 17 6 5 12 5 13 21 27
ROOT
ATOM     1   C13 UNL     1       1.993  -0.779  -0.772  1.00  0.00     0.127 A   
ATOM     2   C14 UNL     1       1.707  -1.455  -1.936  1.00  0.00     0.045 A   
ATOM     3   N2  UNL     1       0.980  -2.536  -1.519  1.00  0.00    -0.209 N   
ATOM     4   N3  UNL     1       0.851  -2.543  -0.180  1.00  0.00    -0.076 NA  
ATOM     5   N4  UNL     1       1.454  -1.464   0.289  1.00  0.00    -0.132 NA  
ATOM     6   H18 UNL     1       1.912  -1.260  -2.980  1.00  0.00     0.083 HD  
ENDROOT
BRANCH   1   7
ATOM     7   C4  UNL     1       2.671   0.532  -0.530  1.00  0.00     0.117 C   
BRANCH   7   8
ATOM     8   C2  UNL     1       4.190   0.374  -0.267  1.00  0.00     0.037 C   
ATOM     9   C1  UNL     1       4.919   1.720  -0.359  1.00  0.00     0.014 C   
ATOM     10  C3  UNL     1       4.528  -0.303   1.066  1.00  0.00     0.014 C   
ENDBRANCH   7   8
BRANCH   7  11
ATOM     11  N1  UNL     1       2.005   1.240   0.620  1.00  0.00     0.249 N   
ATOM     12  H9  UNL     1       2.607   1.951   1.043  1.00  0.00     0.199 HD  
ATOM     13  H10 UNL     1       1.849   0.525   1.348  1.00  0.00     0.199 HD  
BRANCH  11  14
ATOM     14  C5  UNL     1       0.680   1.847   0.304  1.00  0.00     0.164 C   
BRANCH  14  15
ATOM     15  C6  UNL     1      -0.045   2.212   1.567  1.00  0.00    -0.002 A   
ATOM     16  C7  UNL     1       0.066   3.511   2.114  1.00  0.00     0.012 A   
ATOM     17  C11 UNL     1      -0.796   1.234   2.243  1.00  0.00     0.045 A   
ATOM     18  C8  UNL     1      -0.570   3.839   3.317  1.00  0.00     0.037 A   
ATOM     19  C10 UNL     1      -1.410   1.591   3.425  1.00  0.00     0.109 A   
ATOM     20  C9  UNL     1      -1.299   2.856   3.948  1.00  0.00     0.108 A   
ATOM     21  O1  UNL     1      -2.166   0.771   4.201  1.00  0.00    -0.316 OA  
ATOM     22  O2  UNL     1      -1.969   2.991   5.122  1.00  0.00    -0.316 OA  
ATOM     23  C12 UNL     1      -2.529   1.668   5.275  1.00  0.00     0.337 C   
ENDBRANCH  14  15
ENDBRANCH  11  14
ENDBRANCH   7  11
ENDBRANCH   1   7
BRANCH   3  24
ATOM     24  C15 UNL     1       0.292  -3.510  -2.335  1.00  0.00     0.170 C   
BRANCH  24  25
ATOM     25  C16 UNL     1      -1.228  -3.537  -2.111  1.00  0.00     0.164 C   
BRANCH  25  26
ATOM     26  O3  UNL     1      -1.819  -4.371  -3.110  1.00  0.00    -0.387 OA  
ATOM     27  H22 UNL     1      -2.785  -4.251  -3.064  1.00  0.00     0.211 HD  
ENDBRANCH  25  26
BRANCH  25  28
ATOM     28  C17 UNL     1      -1.880  -2.167  -2.174  1.00  0.00    -0.015 A   
ATOM     29  C18 UNL     1      -2.457  -1.611  -1.016  1.00  0.00     0.010 A   
ATOM     30  C22 UNL     1      -1.879  -1.415  -3.359  1.00  0.00     0.049 A   
ATOM     31  C19 UNL     1      -3.003  -0.325  -1.039  1.00  0.00     0.043 A   
ATOM     32  C21 UNL     1      -2.417  -0.130  -3.369  1.00  0.00     0.159 A   
ATOM     33  C20 UNL     1      -2.970   0.412  -2.217  1.00  0.00     0.158 A   
ATOM     34  F2  UNL     1      -2.365   0.592  -4.497  1.00  0.00    -0.204 F   
ATOM     35  F1  UNL     1      -3.452   1.662  -2.221  1.00  0.00    -0.204 F   
ENDBRANCH  25  28
ENDBRANCH  24  25
ENDBRANCH   3  24
TORSDOF 9
