REMARK SMILES CC(C)[C@H]([NH2+]Cc1ccc2c(c1)OCO2)c1cn(C[C@@H](O)c2ccc(F)c(F)c2)nn1
REMARK SMILES IDX 16 1 17 2 18 3 30 4 31 5 4 7 2 8 1 9 3 10 5 11 6 14 7 15
REMARK SMILES IDX 8 16 12 17 9 18 11 19 10 20 13 21 15 22 14 23 19 24 20 25
REMARK SMILES IDX 21 26 22 28 23 29 29 30 24 31 27 32 25 33 28 34 26 35
REMARK H PARENT 17 6 5 12 5 13 21 27
ROOT
ATOM     1   C13 UNL     1       0.937  -1.103  -0.428  1.00  0.00     0.127 A   
ATOM     2   C14 UNL     1       1.459  -1.669  -1.571  1.00  0.00     0.045 A   
ATOM     3   N2  UNL     1       1.600  -0.612  -2.426  1.00  0.00    -0.209 N   
ATOM     4   N3  UNL     1       1.233   0.539  -1.835  1.00  0.00    -0.076 NA  
ATOM     5   N4  UNL     1       0.807   0.250  -0.617  1.00  0.00    -0.132 NA  
ATOM     6   H18 UNL     1       1.712  -2.681  -1.853  1.00  0.00     0.083 HD  
ENDROOT
BRANCH   1   7
ATOM     7   C4  UNL     1       0.530  -1.712   0.878  1.00  0.00     0.117 C   
BRANCH   7   8
ATOM     8   C2  UNL     1      -0.824  -2.464   0.769  1.00  0.00     0.037 C   
ATOM     9   C1  UNL     1      -2.027  -1.543   0.529  1.00  0.00     0.014 C   
ATOM     10  C3  UNL     1      -1.084  -3.348   1.995  1.00  0.00     0.014 C   
ENDBRANCH   7   8
BRANCH   7  11
ATOM     11  N1  UNL     1       0.456  -0.658   1.950  1.00  0.00     0.249 N   
ATOM     12  H9  UNL     1      -0.128  -0.948   2.741  1.00  0.00     0.199 HD  
ATOM     13  H10 UNL     1      -0.014   0.157   1.531  1.00  0.00     0.199 HD  
BRANCH  11  14
ATOM     14  C5  UNL     1       1.770  -0.182   2.469  1.00  0.00     0.164 C   
BRANCH  14  15
ATOM     15  C6  UNL     1       1.572   0.954   3.432  1.00  0.00    -0.002 A   
ATOM     16  C7  UNL     1       1.544   0.719   4.827  1.00  0.00     0.012 A   
ATOM     17  C11 UNL     1       1.361   2.256   2.943  1.00  0.00     0.045 A   
ATOM     18  C8  UNL     1       1.324   1.768   5.726  1.00  0.00     0.037 A   
ATOM     19  C10 UNL     1       1.144   3.266   3.857  1.00  0.00     0.109 A   
ATOM     20  C9  UNL     1       1.127   3.030   5.209  1.00  0.00     0.108 A   
ATOM     21  O1  UNL     1       0.920   4.571   3.555  1.00  0.00    -0.316 OA  
ATOM     22  O2  UNL     1       0.894   4.157   5.930  1.00  0.00    -0.316 OA  
ATOM     23  C12 UNL     1       0.788   5.141   4.877  1.00  0.00     0.337 C   
ENDBRANCH  14  15
ENDBRANCH  11  14
ENDBRANCH   7  11
ENDBRANCH   1   7
BRANCH   3  24
ATOM     24  C15 UNL     1       2.038  -0.630  -3.803  1.00  0.00     0.170 C   
BRANCH  24  25
ATOM     25  C16 UNL     1       0.939  -0.227  -4.794  1.00  0.00     0.164 C   
BRANCH  25  26
ATOM     26  O3  UNL     1       1.460  -0.341  -6.119  1.00  0.00    -0.387 OA  
ATOM     27  H22 UNL     1       0.723  -0.194  -6.740  1.00  0.00     0.211 HD  
ENDBRANCH  25  26
BRANCH  25  28
ATOM     28  C17 UNL     1      -0.310  -1.080  -4.681  1.00  0.00    -0.015 A   
ATOM     29  C18 UNL     1      -1.478  -0.545  -4.107  1.00  0.00     0.010 A   
ATOM     30  C22 UNL     1      -0.316  -2.421  -5.103  1.00  0.00     0.049 A   
ATOM     31  C19 UNL     1      -2.622  -1.333  -3.955  1.00  0.00     0.043 A   
ATOM     32  C21 UNL     1      -1.460  -3.199  -4.942  1.00  0.00     0.159 A   
ATOM     33  C20 UNL     1      -2.604  -2.660  -4.370  1.00  0.00     0.158 A   
ATOM     34  F2  UNL     1      -1.437  -4.480  -5.332  1.00  0.00    -0.204 F   
ATOM     35  F1  UNL     1      -3.695  -3.416  -4.198  1.00  0.00    -0.204 F   
ENDBRANCH  25  28
ENDBRANCH  24  25
ENDBRANCH   3  24
TORSDOF 9
