REMARK SMILES O=C(c1ccccc1)n1cc([C@@H]([NH2+]Cc2ccc3c(c2)OCO3)C2CCCC2)nn1
REMARK SMILES IDX 12 1 11 2 9 3 10 4 30 5 29 6 2 7 1 8 3 9 4 10 8 11 5 12 7 13
REMARK SMILES IDX 6 14 13 15 14 18 15 19 16 20 20 21 17 22 19 23 18 24 21 25
REMARK SMILES IDX 23 26 22 27 24 28 25 29 28 30 26 31 27 32
REMARK H PARENT 13 16 13 17
ROOT
ATOM     1   C10 UNL     1      -0.778   1.607   1.260  1.00  0.00     0.117 C   
ENDROOT
BRANCH   1   2
ATOM     2   C9  UNL     1      -1.666   0.980   0.229  1.00  0.00     0.128 A   
ATOM     3   N1  UNL     1      -3.285   0.204  -1.028  1.00  0.00    -0.143 N   
ATOM     4   C8  UNL     1      -3.034   0.883   0.153  1.00  0.00     0.139 A   
ATOM     5   N4  UNL     1      -2.101  -0.103  -1.616  1.00  0.00    -0.068 NA  
ATOM     6   N3  UNL     1      -1.117   0.364  -0.864  1.00  0.00    -0.131 NA  
BRANCH   3   7
ATOM     7   C1  UNL     1      -4.529  -0.112  -1.599  1.00  0.00     0.271 C   
ATOM     8   O1  UNL     1      -5.512   0.310  -0.989  1.00  0.00    -0.269 OA  
BRANCH   7   9
ATOM     9   C2  UNL     1      -4.745  -0.878  -2.856  1.00  0.00     0.039 A   
ATOM     10  C3  UNL     1      -3.874  -1.885  -3.289  1.00  0.00     0.014 A   
ATOM     11  C7  UNL     1      -5.896  -0.595  -3.607  1.00  0.00     0.014 A   
ATOM     12  C4  UNL     1      -4.140  -2.579  -4.473  1.00  0.00     0.001 A   
ATOM     13  C6  UNL     1      -6.156  -1.290  -4.789  1.00  0.00     0.001 A   
ATOM     14  C5  UNL     1      -5.277  -2.280  -5.222  1.00  0.00     0.000 A   
ENDBRANCH   7   9
ENDBRANCH   3   7
ENDBRANCH   1   2
BRANCH   1  15
ATOM     15  N2  UNL     1       0.597   0.998   1.205  1.00  0.00     0.249 N   
ATOM     16  H8  UNL     1       1.308   1.605   1.623  1.00  0.00     0.199 HD  
ATOM     17  H9  UNL     1       0.848   0.911   0.208  1.00  0.00     0.199 HD  
BRANCH  15  18
ATOM     18  C11 UNL     1       0.717  -0.359   1.807  1.00  0.00     0.164 C   
BRANCH  18  19
ATOM     19  C12 UNL     1       2.097  -0.908   1.585  1.00  0.00    -0.002 A   
ATOM     20  C13 UNL     1       2.406  -1.586   0.381  1.00  0.00     0.012 A   
ATOM     21  C17 UNL     1       3.104  -0.705   2.543  1.00  0.00     0.045 A   
ATOM     22  C14 UNL     1       3.697  -2.067   0.138  1.00  0.00     0.037 A   
ATOM     23  C16 UNL     1       4.366  -1.192   2.271  1.00  0.00     0.109 A   
ATOM     24  C15 UNL     1       4.654  -1.854   1.104  1.00  0.00     0.108 A   
ATOM     25  O2  UNL     1       5.448  -1.080   3.086  1.00  0.00    -0.316 OA  
ATOM     26  O3  UNL     1       5.953  -2.247   1.038  1.00  0.00    -0.316 OA  
ATOM     27  C18 UNL     1       6.450  -1.775   2.308  1.00  0.00     0.337 C   
ENDBRANCH  18  19
ENDBRANCH  15  18
ENDBRANCH   1  15
BRANCH   1  28
ATOM     28  C19 UNL     1      -0.707   3.137   1.086  1.00  0.00     0.043 C   
ATOM     29  C20 UNL     1       0.059   3.649  -0.137  1.00  0.00     0.010 C   
ATOM     30  C23 UNL     1      -0.020   3.884   2.232  1.00  0.00     0.010 C   
ATOM     31  C21 UNL     1       0.274   5.132   0.153  1.00  0.00     0.001 C   
ATOM     32  C22 UNL     1       0.198   5.287   1.673  1.00  0.00     0.001 C   
ENDBRANCH   1  28
TORSDOF 7
