REMARK SMILES CC(C)C[C@H]([NH2+]Cc1ccc2c(c1)OCO2)c1cn(C[C@@H](O)c2ccccn2)nn1
REMARK SMILES IDX 17 1 18 2 19 3 29 4 30 5 5 7 4 8 2 9 1 10 3 11 6 12 7 15
REMARK SMILES IDX 8 16 9 17 13 18 10 19 12 20 11 21 14 22 16 23 15 24 20 25
REMARK SMILES IDX 21 26 22 27 23 29 24 30 28 31 25 32 27 33 26 34
REMARK H PARENT 18 6 6 13 6 14 22 28
ROOT
ATOM     1   C14 UNL     1      -1.883  -0.501  -0.618  1.00  0.00     0.127 A   
ATOM     2   C15 UNL     1      -2.461  -1.591  -0.009  1.00  0.00     0.045 A   
ATOM     3   N2  UNL     1      -3.783  -1.255   0.079  1.00  0.00    -0.209 N   
ATOM     4   N4  UNL     1      -4.026  -0.093  -0.559  1.00  0.00    -0.076 NA  
ATOM     5   N5  UNL     1      -2.865   0.390  -0.974  1.00  0.00    -0.132 NA  
ATOM     6   H20 UNL     1      -2.069  -2.506   0.414  1.00  0.00     0.083 HD  
ENDROOT
BRANCH   1   7
ATOM     7   C5  UNL     1      -0.460  -0.190  -0.940  1.00  0.00     0.114 C   
BRANCH   7   8
ATOM     8   C4  UNL     1       0.248   0.604   0.174  1.00  0.00     0.064 C   
BRANCH   8   9
ATOM     9   C2  UNL     1       0.411  -0.141   1.517  1.00  0.00    -0.012 C   
ATOM     10  C1  UNL     1       1.240  -1.420   1.379  1.00  0.00     0.007 C   
ATOM     11  C3  UNL     1       1.063   0.787   2.547  1.00  0.00     0.007 C   
ENDBRANCH   8   9
ENDBRANCH   7   8
BRANCH   7  12
ATOM     12  N1  UNL     1      -0.422   0.662  -2.196  1.00  0.00     0.249 N   
ATOM     13  H11 UNL     1       0.156   1.497  -2.050  1.00  0.00     0.199 HD  
ATOM     14  H12 UNL     1      -1.385   1.020  -2.325  1.00  0.00     0.199 HD  
BRANCH  12  15
ATOM     15  C6  UNL     1       0.005  -0.034  -3.441  1.00  0.00     0.164 C   
BRANCH  15  16
ATOM     16  C7  UNL     1       1.479  -0.343  -3.444  1.00  0.00    -0.002 A   
ATOM     17  C8  UNL     1       1.932  -1.683  -3.388  1.00  0.00     0.012 A   
ATOM     18  C12 UNL     1       2.422   0.700  -3.481  1.00  0.00     0.045 A   
ATOM     19  C9  UNL     1       3.300  -1.982  -3.356  1.00  0.00     0.037 A   
ATOM     20  C11 UNL     1       3.762   0.371  -3.443  1.00  0.00     0.109 A   
ATOM     21  C10 UNL     1       4.190  -0.932  -3.384  1.00  0.00     0.108 A   
ATOM     22  O1  UNL     1       4.793   1.255  -3.455  1.00  0.00    -0.316 OA  
ATOM     23  O2  UNL     1       5.545  -1.033  -3.358  1.00  0.00    -0.316 OA  
ATOM     24  C13 UNL     1       5.928   0.357  -3.425  1.00  0.00     0.337 C   
ENDBRANCH  15  16
ENDBRANCH  12  15
ENDBRANCH   7  12
ENDBRANCH   1   7
BRANCH   3  25
ATOM     25  C16 UNL     1      -4.858  -1.980   0.728  1.00  0.00     0.172 C   
BRANCH  25  26
ATOM     26  C17 UNL     1      -4.695  -2.091   2.247  1.00  0.00     0.182 C   
BRANCH  26  27
ATOM     27  O3  UNL     1      -3.626  -3.011   2.545  1.00  0.00    -0.385 OA  
ATOM     28  H24 UNL     1      -3.027  -2.510   3.140  1.00  0.00     0.211 HD  
ENDBRANCH  26  27
BRANCH  26  29
ATOM     29  C18 UNL     1      -4.442  -0.765   2.940  1.00  0.00     0.071 A   
ATOM     30  C19 UNL     1      -5.448   0.189   3.063  1.00  0.00     0.026 A   
ATOM     31  N3  UNL     1      -3.184  -0.578   3.435  1.00  0.00    -0.258 NA  
ATOM     32  C20 UNL     1      -5.160   1.380   3.723  1.00  0.00     0.004 A   
ATOM     33  C22 UNL     1      -2.943   0.588   4.076  1.00  0.00     0.111 A   
ATOM     34  C21 UNL     1      -3.887   1.586   4.241  1.00  0.00     0.020 A   
ENDBRANCH  26  29
ENDBRANCH  25  26
ENDBRANCH   3  25
TORSDOF 10
