REMARK SMILES CC(C)C[C@H]([NH2+]Cc1ccc2c(c1)OCO2)c1cn(C[C@H](O)c2ccccn2)nn1
REMARK SMILES IDX 17 1 18 2 19 3 29 4 30 5 5 7 4 8 2 9 1 10 3 11 6 12 7 15
REMARK SMILES IDX 8 16 9 17 13 18 10 19 12 20 11 21 14 22 16 23 15 24 20 25
REMARK SMILES IDX 21 26 22 27 23 29 24 30 28 31 25 32 27 33 26 34
REMARK H PARENT 18 6 6 13 6 14 22 28
ROOT
ATOM     1   C14 UNL     1       2.055   1.002  -1.353  1.00  0.00     0.127 A   
ATOM     2   C15 UNL     1       3.061   0.695  -0.464  1.00  0.00     0.045 A   
ATOM     3   N2  UNL     1       3.079   1.761   0.392  1.00  0.00    -0.209 N   
ATOM     4   N4  UNL     1       2.152   2.674   0.046  1.00  0.00    -0.076 NA  
ATOM     5   N5  UNL     1       1.510   2.215  -1.017  1.00  0.00    -0.132 NA  
ATOM     6   H20 UNL     1       3.716  -0.158  -0.342  1.00  0.00     0.083 HD  
ENDROOT
BRANCH   1   7
ATOM     7   C5  UNL     1       1.458   0.214  -2.470  1.00  0.00     0.114 C   
BRANCH   7   8
ATOM     8   C4  UNL     1       1.831   0.768  -3.856  1.00  0.00     0.064 C   
BRANCH   8   9
ATOM     9   C2  UNL     1       3.340   0.735  -4.183  1.00  0.00    -0.012 C   
ATOM     10  C1  UNL     1       3.590   1.413  -5.534  1.00  0.00     0.007 C   
ATOM     11  C3  UNL     1       3.897  -0.691  -4.210  1.00  0.00     0.007 C   
ENDBRANCH   8   9
ENDBRANCH   7   8
BRANCH   7  12
ATOM     12  N1  UNL     1      -0.047   0.262  -2.353  1.00  0.00     0.249 N   
ATOM     13  H11 UNL     1      -0.299   1.248  -2.189  1.00  0.00     0.199 HD  
ATOM     14  H12 UNL     1      -0.503  -0.008  -3.230  1.00  0.00     0.199 HD  
BRANCH  12  15
ATOM     15  C6  UNL     1      -0.611  -0.542  -1.234  1.00  0.00     0.164 C   
BRANCH  15  16
ATOM     16  C7  UNL     1      -2.071  -0.252  -1.046  1.00  0.00    -0.002 A   
ATOM     17  C8  UNL     1      -2.476   0.807  -0.198  1.00  0.00     0.012 A   
ATOM     18  C12 UNL     1      -3.040  -0.998  -1.734  1.00  0.00     0.045 A   
ATOM     19  C9  UNL     1      -3.831   1.106  -0.019  1.00  0.00     0.037 A   
ATOM     20  C11 UNL     1      -4.367  -0.675  -1.538  1.00  0.00     0.109 A   
ATOM     21  C10 UNL     1      -4.752   0.344  -0.702  1.00  0.00     0.108 A   
ATOM     22  O1  UNL     1      -5.425  -1.302  -2.116  1.00  0.00    -0.316 OA  
ATOM     23  O2  UNL     1      -6.101   0.485  -0.645  1.00  0.00    -0.316 OA  
ATOM     24  C13 UNL     1      -6.528  -0.563  -1.543  1.00  0.00     0.337 C   
ENDBRANCH  15  16
ENDBRANCH  12  15
ENDBRANCH   7  12
ENDBRANCH   1   7
BRANCH   3  25
ATOM     25  C16 UNL     1       3.878   1.927   1.583  1.00  0.00     0.172 C   
BRANCH  25  26
ATOM     26  C17 UNL     1       3.054   2.133   2.855  1.00  0.00     0.182 C   
BRANCH  26  27
ATOM     27  O3  UNL     1       3.943   2.057   3.979  1.00  0.00    -0.385 OA  
ATOM     28  H24 UNL     1       3.863   1.150   4.333  1.00  0.00     0.211 HD  
ENDBRANCH  26  27
BRANCH  26  29
ATOM     29  C18 UNL     1       1.967   1.084   3.019  1.00  0.00     0.071 A   
ATOM     30  C19 UNL     1       0.629   1.460   3.112  1.00  0.00     0.026 A   
ATOM     31  N3  UNL     1       2.369  -0.211   3.105  1.00  0.00    -0.258 NA  
ATOM     32  C20 UNL     1      -0.334   0.473   3.304  1.00  0.00     0.004 A   
ATOM     33  C22 UNL     1       1.412  -1.143   3.314  1.00  0.00     0.111 A   
ATOM     34  C21 UNL     1       0.062  -0.854   3.413  1.00  0.00     0.020 A   
ENDBRANCH  26  29
ENDBRANCH  25  26
ENDBRANCH   3  25
TORSDOF 10
