REMARK SMILES Cc1cccc(CCn2cc([C@@H]([NH2+]Cc3ccc4c(c3)OCO4)C3CCCC3)nn2)n1
REMARK SMILES IDX 9 1 10 2 11 3 29 4 30 5 8 7 7 8 6 9 2 10 3 11 31 12 4 13
REMARK SMILES IDX 5 14 1 15 12 16 13 17 14 20 15 21 16 22 20 23 17 24 19 25
REMARK SMILES IDX 18 26 21 27 23 28 22 29 24 30 25 31 28 32 26 33 27 34
REMARK H PARENT 10 6 13 18 13 19
ROOT
ATOM     1   N1  UNL     1       1.780  -1.380   2.447  1.00  0.00    -0.212 N   
ATOM     2   C9  UNL     1       2.306  -0.860   1.299  1.00  0.00     0.045 A   
ATOM     3   C10 UNL     1       1.458   0.176   0.984  1.00  0.00     0.127 A   
ATOM     4   N3  UNL     1       0.472   0.257   1.935  1.00  0.00    -0.132 NA  
ATOM     5   N4  UNL     1       0.682  -0.697   2.827  1.00  0.00    -0.076 NA  
ATOM     6   H11 UNL     1       3.177  -1.288   0.822  1.00  0.00     0.083 HD  
ENDROOT
BRANCH   1   7
ATOM     7   C8  UNL     1       2.256  -2.503   3.227  1.00  0.00     0.140 C   
BRANCH   7   8
ATOM     8   C7  UNL     1       1.349  -3.729   3.124  1.00  0.00     0.077 C   
BRANCH   8   9
ATOM     9   C6  UNL     1       1.316  -4.377   1.760  1.00  0.00     0.042 A   
ATOM     10  C2  UNL     1       2.316  -4.720  -0.313  1.00  0.00     0.038 A   
ATOM     11  C3  UNL     1       1.350  -5.653  -0.671  1.00  0.00     0.023 A   
ATOM     12  N5  UNL     1       2.303  -4.074   0.880  1.00  0.00    -0.258 NA  
ATOM     13  C4  UNL     1       0.337  -5.945   0.235  1.00  0.00     0.004 A   
ATOM     14  C5  UNL     1       0.321  -5.306   1.469  1.00  0.00     0.024 A   
ATOM     15  C1  UNL     1       3.437  -4.403  -1.257  1.00  0.00     0.067 C   
ENDBRANCH   8   9
ENDBRANCH   7   8
ENDBRANCH   1   7
BRANCH   3  16
ATOM     16  C11 UNL     1       1.414   1.083  -0.200  1.00  0.00     0.117 C   
BRANCH  16  17
ATOM     17  N2  UNL     1      -0.022   1.395  -0.545  1.00  0.00     0.249 N   
ATOM     18  H13 UNL     1      -0.096   2.218  -1.151  1.00  0.00     0.199 HD  
ATOM     19  H14 UNL     1      -0.489   1.639   0.341  1.00  0.00     0.199 HD  
BRANCH  17  20
ATOM     20  C12 UNL     1      -0.787   0.268  -1.149  1.00  0.00     0.164 C   
BRANCH  20  21
ATOM     21  C13 UNL     1      -2.218   0.667  -1.373  1.00  0.00    -0.002 A   
ATOM     22  C14 UNL     1      -2.636   1.174  -2.626  1.00  0.00     0.012 A   
ATOM     23  C18 UNL     1      -3.140   0.588  -0.315  1.00  0.00     0.045 A   
ATOM     24  C15 UNL     1      -3.957   1.588  -2.828  1.00  0.00     0.037 A   
ATOM     25  C17 UNL     1      -4.434   1.005  -0.547  1.00  0.00     0.109 A   
ATOM     26  C16 UNL     1      -4.832   1.491  -1.768  1.00  0.00     0.108 A   
ATOM     27  O1  UNL     1      -5.443   0.998   0.362  1.00  0.00    -0.316 OA  
ATOM     28  O2  UNL     1      -6.142   1.848  -1.783  1.00  0.00    -0.316 OA  
ATOM     29  C19 UNL     1      -6.533   1.517  -0.433  1.00  0.00     0.337 C   
ENDBRANCH  20  21
ENDBRANCH  17  20
ENDBRANCH  16  17
BRANCH  16  30
ATOM     30  C20 UNL     1       2.158   2.419  -0.024  1.00  0.00     0.043 C   
ATOM     31  C21 UNL     1       3.649   2.292   0.293  1.00  0.00     0.010 C   
ATOM     32  C24 UNL     1       1.662   3.338   1.097  1.00  0.00     0.010 C   
ATOM     33  C22 UNL     1       4.044   3.715   0.668  1.00  0.00     0.001 C   
ATOM     34  C23 UNL     1       2.810   4.321   1.334  1.00  0.00     0.001 C   
ENDBRANCH  16  30
ENDBRANCH   3  16
TORSDOF 8
