REMARK SMILES Cc1cc(F)cc([C@@H](CO)n2cc([C@@H]([NH2+]Cc3ccc4c(c3)OCO4)C(C)(C)C)nn2)c1
REMARK SMILES IDX 11 1 12 2 13 3 30 4 31 5 8 7 7 8 2 9 3 10 32 11 4 12 6 13
REMARK SMILES IDX 1 14 5 15 9 16 10 17 14 19 15 20 16 23 17 24 18 25 22 26
REMARK SMILES IDX 19 27 21 28 20 29 23 30 25 31 24 32 26 33 27 34 28 35 29 36
REMARK H PARENT 12 6 10 18 15 21 15 22
ROOT
ATOM     1   N1  UNL     1      -1.096   1.788  -1.401  1.00  0.00    -0.202 N   
ATOM     2   C9  UNL     1      -0.725   0.537  -1.815  1.00  0.00     0.046 A   
ATOM     3   C10 UNL     1      -1.115  -0.292  -0.788  1.00  0.00     0.127 A   
ATOM     4   N3  UNL     1      -1.662   0.467   0.217  1.00  0.00    -0.132 NA  
ATOM     5   N4  UNL     1      -1.637   1.734  -0.163  1.00  0.00    -0.075 NA  
ATOM     6   H10 UNL     1      -0.266   0.360  -2.778  1.00  0.00     0.083 HD  
ENDROOT
BRANCH   1   7
ATOM     7   C7  UNL     1      -0.995   3.067  -2.105  1.00  0.00     0.155 C   
BRANCH   7   8
ATOM     8   C6  UNL     1       0.418   3.300  -2.628  1.00  0.00    -0.020 A   
ATOM     9   C2  UNL     1       2.682   4.155  -2.221  1.00  0.00    -0.048 A   
ATOM     10  C3  UNL     1       3.055   3.769  -3.511  1.00  0.00     0.042 A   
ATOM     11  C24 UNL     1       1.366   3.922  -1.791  1.00  0.00     0.009 A   
ATOM     12  C4  UNL     1       2.131   3.144  -4.336  1.00  0.00     0.123 A   
ATOM     13  C5  UNL     1       0.827   2.907  -3.910  1.00  0.00     0.045 A   
ATOM     14  C1  UNL     1       3.657   4.874  -1.337  1.00  0.00     0.044 C   
ATOM     15  F1  UNL     1       2.502   2.754  -5.561  1.00  0.00    -0.207 F   
ENDBRANCH   7   8
BRANCH   7  16
ATOM     16  C8  UNL     1      -2.140   3.244  -3.124  1.00  0.00     0.185 C   
BRANCH  16  17
ATOM     17  O1  UNL     1      -2.214   2.186  -4.082  1.00  0.00    -0.394 OA  
ATOM     18  H9  UNL     1      -2.875   2.454  -4.747  1.00  0.00     0.210 HD  
ENDBRANCH  16  17
ENDBRANCH   7  16
ENDBRANCH   1   7
BRANCH   3  19
ATOM     19  C11 UNL     1      -0.979  -1.775  -0.614  1.00  0.00     0.120 C   
BRANCH  19  20
ATOM     20  N2  UNL     1      -0.803  -2.081   0.856  1.00  0.00     0.250 N   
ATOM     21  H12 UNL     1      -0.978  -3.065   1.075  1.00  0.00     0.199 HD  
ATOM     22  H13 UNL     1      -1.524  -1.538   1.356  1.00  0.00     0.199 HD  
BRANCH  20  23
ATOM     23  C12 UNL     1       0.515  -1.696   1.439  1.00  0.00     0.164 C   
BRANCH  23  24
ATOM     24  C13 UNL     1       0.575  -2.081   2.891  1.00  0.00    -0.002 A   
ATOM     25  C14 UNL     1       1.313  -3.218   3.303  1.00  0.00     0.012 A   
ATOM     26  C18 UNL     1      -0.143  -1.337   3.846  1.00  0.00     0.045 A   
ATOM     27  C15 UNL     1       1.339  -3.609   4.646  1.00  0.00     0.037 A   
ATOM     28  C17 UNL     1      -0.100  -1.752   5.160  1.00  0.00     0.109 A   
ATOM     29  C16 UNL     1       0.621  -2.855   5.551  1.00  0.00     0.108 A   
ATOM     30  O2  UNL     1      -0.743  -1.157   6.198  1.00  0.00    -0.316 OA  
ATOM     31  O3  UNL     1       0.529  -3.088   6.886  1.00  0.00    -0.316 OA  
ATOM     32  C19 UNL     1      -0.315  -1.991   7.300  1.00  0.00     0.337 C   
ENDBRANCH  23  24
ENDBRANCH  20  23
ENDBRANCH  19  20
BRANCH  19  33
ATOM     33  C20 UNL     1      -2.177  -2.605  -1.198  1.00  0.00     0.010 C   
ATOM     34  C21 UNL     1      -1.883  -4.120  -1.096  1.00  0.00     0.017 C   
ATOM     35  C22 UNL     1      -3.505  -2.318  -0.472  1.00  0.00     0.017 C   
ATOM     36  C23 UNL     1      -2.367  -2.293  -2.700  1.00  0.00     0.017 C   
ENDBRANCH  19  33
ENDBRANCH   3  19
TORSDOF 9
