REMARK SMILES Cc1cc(F)cc([C@H](CO)n2cc([C@@H]([NH2+]Cc3ccc4c(c3)OCO4)C(C)(C)C)nn2)c1
REMARK SMILES IDX 11 1 12 2 13 3 30 4 31 5 8 7 7 8 2 9 3 10 32 11 4 12 6 13
REMARK SMILES IDX 1 14 5 15 9 16 10 17 14 19 15 20 16 23 17 24 18 25 22 26
REMARK SMILES IDX 19 27 21 28 20 29 23 30 25 31 24 32 26 33 27 34 28 35 29 36
REMARK H PARENT 12 6 10 18 15 21 15 22
ROOT
ATOM     1   N1  UNL     1       1.615  -1.113  -1.249  1.00  0.00    -0.202 N   
ATOM     2   C9  UNL     1       1.729  -0.446  -0.058  1.00  0.00     0.046 A   
ATOM     3   C10 UNL     1       0.806  -1.059   0.761  1.00  0.00     0.127 A   
ATOM     4   N3  UNL     1       0.185  -2.064   0.067  1.00  0.00    -0.132 NA  
ATOM     5   N4  UNL     1       0.669  -2.074  -1.164  1.00  0.00    -0.075 NA  
ATOM     6   H10 UNL     1       2.400   0.391   0.075  1.00  0.00     0.083 HD  
ENDROOT
BRANCH   1   7
ATOM     7   C7  UNL     1       2.256  -0.769  -2.519  1.00  0.00     0.155 C   
BRANCH   7   8
ATOM     8   C6  UNL     1       1.307   0.102  -3.332  1.00  0.00    -0.020 A   
ATOM     9   C2  UNL     1      -0.637   0.374  -4.797  1.00  0.00    -0.048 A   
ATOM     10  C3  UNL     1      -0.483   1.763  -4.734  1.00  0.00     0.042 A   
ATOM     11  C24 UNL     1       0.249  -0.446  -4.081  1.00  0.00     0.009 A   
ATOM     12  C4  UNL     1       0.554   2.309  -3.990  1.00  0.00     0.123 A   
ATOM     13  C5  UNL     1       1.447   1.498  -3.297  1.00  0.00     0.045 A   
ATOM     14  C1  UNL     1      -1.773  -0.228  -5.572  1.00  0.00     0.044 C   
ATOM     15  F1  UNL     1       0.689   3.639  -3.919  1.00  0.00    -0.207 F   
ENDBRANCH   7   8
BRANCH   7  16
ATOM     16  C8  UNL     1       2.789  -2.005  -3.264  1.00  0.00     0.185 C   
BRANCH  16  17
ATOM     17  O1  UNL     1       3.950  -2.508  -2.597  1.00  0.00    -0.394 OA  
ATOM     18  H9  UNL     1       4.253  -3.288  -3.098  1.00  0.00     0.210 HD  
ENDBRANCH  16  17
ENDBRANCH   7  16
ENDBRANCH   1   7
BRANCH   3  19
ATOM     19  C11 UNL     1       0.356  -0.712   2.146  1.00  0.00     0.120 C   
BRANCH  19  20
ATOM     20  N2  UNL     1      -1.155  -0.841   2.253  1.00  0.00     0.250 N   
ATOM     21  H12 UNL     1      -1.463  -0.627   3.203  1.00  0.00     0.199 HD  
ATOM     22  H13 UNL     1      -1.383  -1.824   2.063  1.00  0.00     0.199 HD  
BRANCH  20  23
ATOM     23  C12 UNL     1      -1.978  -0.029   1.298  1.00  0.00     0.164 C   
BRANCH  23  24
ATOM     24  C13 UNL     1      -1.659   1.439   1.302  1.00  0.00    -0.002 A   
ATOM     25  C14 UNL     1      -1.099   2.043   0.149  1.00  0.00     0.012 A   
ATOM     26  C18 UNL     1      -1.896   2.221   2.445  1.00  0.00     0.045 A   
ATOM     27  C15 UNL     1      -0.766   3.401   0.136  1.00  0.00     0.037 A   
ATOM     28  C17 UNL     1      -1.555   3.557   2.399  1.00  0.00     0.109 A   
ATOM     29  C16 UNL     1      -1.004   4.130   1.279  1.00  0.00     0.108 A   
ATOM     30  O2  UNL     1      -1.708   4.446   3.416  1.00  0.00    -0.316 OA  
ATOM     31  O3  UNL     1      -0.743   5.452   1.449  1.00  0.00    -0.316 OA  
ATOM     32  C19 UNL     1      -1.221   5.658   2.796  1.00  0.00     0.337 C   
ENDBRANCH  23  24
ENDBRANCH  20  23
ENDBRANCH  19  20
BRANCH  19  33
ATOM     33  C20 UNL     1       1.056  -1.549   3.277  1.00  0.00     0.010 C   
ATOM     34  C21 UNL     1       0.745  -3.056   3.191  1.00  0.00     0.017 C   
ATOM     35  C22 UNL     1       2.589  -1.366   3.195  1.00  0.00     0.017 C   
ATOM     36  C23 UNL     1       0.616  -1.046   4.671  1.00  0.00     0.017 C   
ENDBRANCH  19  33
ENDBRANCH   3  19
TORSDOF 9
