REMARK SMILES Cc1cc(Cn2cc([C@H](CC(C)C)[NH2+]Cc3ccc4c(c3)OCO4)nn2)c(C)nn1
REMARK SMILES IDX 6 1 7 2 8 3 25 4 26 5 5 7 4 8 2 9 3 10 30 11 29 12 27 13
REMARK SMILES IDX 1 14 28 15 9 16 10 17 11 18 12 19 13 20 14 21 15 24 16 25
REMARK SMILES IDX 17 26 21 27 18 28 20 29 19 30 22 31 24 32 23 33
REMARK H PARENT 7 6 14 22 14 23
ROOT
ATOM     1   N1  UNL     1      -0.859  -0.858   2.653  1.00  0.00    -0.208 N   
ATOM     2   C6  UNL     1      -0.058  -1.209   1.602  1.00  0.00     0.046 A   
ATOM     3   C7  UNL     1       1.100  -0.492   1.810  1.00  0.00     0.127 A   
ATOM     4   N3  UNL     1       0.982   0.225   2.971  1.00  0.00    -0.132 NA  
ATOM     5   N4  UNL     1      -0.224   0.005   3.470  1.00  0.00    -0.076 NA  
ATOM     6   H7  UNL     1      -0.384  -1.876   0.816  1.00  0.00     0.083 HD  
ENDROOT
BRANCH   1   7
ATOM     7   C5  UNL     1      -2.238  -1.249   2.908  1.00  0.00     0.171 C   
BRANCH   7   8
ATOM     8   C4  UNL     1      -3.174  -0.530   1.973  1.00  0.00    -0.004 A   
ATOM     9   C2  UNL     1      -4.246   1.512   1.274  1.00  0.00     0.060 A   
ATOM     10  C3  UNL     1      -3.423   0.837   2.162  1.00  0.00     0.032 A   
ATOM     11  N6  UNL     1      -4.803   0.876   0.229  1.00  0.00    -0.156 NA  
ATOM     12  N5  UNL     1      -4.581  -0.460   0.041  1.00  0.00    -0.155 NA  
ATOM     13  C21 UNL     1      -3.796  -1.155   0.891  1.00  0.00     0.065 A   
ATOM     14  C1  UNL     1      -4.540   2.969   1.442  1.00  0.00     0.069 C   
ATOM     15  C22 UNL     1      -3.656  -2.615   0.589  1.00  0.00     0.069 C   
ENDBRANCH   7   8
ENDBRANCH   1   7
BRANCH   3  16
ATOM     16  C8  UNL     1       2.328  -0.363   0.969  1.00  0.00     0.114 C   
BRANCH  16  17
ATOM     17  C9  UNL     1       3.425  -1.332   1.460  1.00  0.00     0.064 C   
BRANCH  17  18
ATOM     18  C10 UNL     1       4.744  -1.342   0.660  1.00  0.00    -0.012 C   
ATOM     19  C11 UNL     1       4.530  -1.642  -0.824  1.00  0.00     0.007 C   
ATOM     20  C12 UNL     1       5.702  -2.374   1.262  1.00  0.00     0.007 C   
ENDBRANCH  17  18
ENDBRANCH  16  17
BRANCH  16  21
ATOM     21  N2  UNL     1       2.876   1.046   0.989  1.00  0.00     0.249 N   
ATOM     22  H18 UNL     1       3.725   1.097   0.421  1.00  0.00     0.199 HD  
ATOM     23  H19 UNL     1       3.140   1.249   1.962  1.00  0.00     0.199 HD  
BRANCH  21  24
ATOM     24  C13 UNL     1       1.953   2.140   0.550  1.00  0.00     0.164 C   
BRANCH  24  25
ATOM     25  C14 UNL     1       1.368   1.927  -0.818  1.00  0.00    -0.002 A   
ATOM     26  C15 UNL     1       2.170   2.048  -1.978  1.00  0.00     0.012 A   
ATOM     27  C19 UNL     1       0.012   1.576  -0.947  1.00  0.00     0.045 A   
ATOM     28  C16 UNL     1       1.631   1.813  -3.249  1.00  0.00     0.037 A   
ATOM     29  C18 UNL     1      -0.484   1.349  -2.213  1.00  0.00     0.109 A   
ATOM     30  C17 UNL     1       0.301   1.463  -3.332  1.00  0.00     0.108 A   
ATOM     31  O1  UNL     1      -1.761   0.994  -2.506  1.00  0.00    -0.316 OA  
ATOM     32  O2  UNL     1      -0.386   1.200  -4.474  1.00  0.00    -0.316 OA  
ATOM     33  C20 UNL     1      -1.707   0.934  -3.948  1.00  0.00     0.337 C   
ENDBRANCH  24  25
ENDBRANCH  21  24
ENDBRANCH  16  21
ENDBRANCH   3  16
TORSDOF 8
