REMARK SMILES CC(C)[C@H]([NH2+]Cc1ccc2c(c1)OCO2)c1cn(Cc2nn(C)c3ccccc23)nn1
REMARK SMILES IDX 16 1 17 2 18 3 30 4 31 5 4 7 2 8 1 9 3 10 5 11 6 14 7 15
REMARK SMILES IDX 8 16 12 17 9 18 11 19 10 20 13 21 15 22 14 23 19 24 20 25
REMARK SMILES IDX 21 26 29 27 22 28 24 29 28 30 25 31 27 32 26 33 23 34
REMARK H PARENT 17 6 5 12 5 13
ROOT
ATOM     1   C13 UNL     1       0.979  -1.763  -1.520  1.00  0.00     0.127 A   
ATOM     2   C14 UNL     1       1.837  -1.039  -0.726  1.00  0.00     0.046 A   
ATOM     3   N2  UNL     1       2.219   0.007  -1.522  1.00  0.00    -0.206 N   
ATOM     4   N5  UNL     1       1.653  -0.086  -2.744  1.00  0.00    -0.076 NA  
ATOM     5   N6  UNL     1       0.879  -1.157  -2.749  1.00  0.00    -0.132 NA  
ATOM     6   H18 UNL     1       2.171  -1.132   0.299  1.00  0.00     0.083 HD  
ENDROOT
BRANCH   1   7
ATOM     7   C4  UNL     1       0.138  -2.966  -1.238  1.00  0.00     0.117 C   
BRANCH   7   8
ATOM     8   C2  UNL     1       0.847  -4.292  -1.615  1.00  0.00     0.037 C   
ATOM     9   C1  UNL     1       1.135  -4.455  -3.113  1.00  0.00     0.014 C   
ATOM     10  C3  UNL     1       0.067  -5.509  -1.103  1.00  0.00     0.014 C   
ENDBRANCH   7   8
BRANCH   7  11
ATOM     11  N1  UNL     1      -1.175  -2.828  -1.979  1.00  0.00     0.249 N   
ATOM     12  H9  UNL     1      -1.006  -2.121  -2.713  1.00  0.00     0.199 HD  
ATOM     13  H10 UNL     1      -1.409  -3.687  -2.483  1.00  0.00     0.199 HD  
BRANCH  11  14
ATOM     14  C5  UNL     1      -2.355  -2.401  -1.177  1.00  0.00     0.164 C   
BRANCH  14  15
ATOM     15  C6  UNL     1      -2.160  -1.138  -0.385  1.00  0.00    -0.002 A   
ATOM     16  C7  UNL     1      -1.992   0.110  -1.032  1.00  0.00     0.012 A   
ATOM     17  C11 UNL     1      -2.139  -1.191   1.020  1.00  0.00     0.045 A   
ATOM     18  C8  UNL     1      -1.794   1.284  -0.294  1.00  0.00     0.037 A   
ATOM     19  C10 UNL     1      -1.945  -0.017   1.716  1.00  0.00     0.109 A   
ATOM     20  C9  UNL     1      -1.776   1.187   1.079  1.00  0.00     0.108 A   
ATOM     21  O1  UNL     1      -1.904   0.099   3.069  1.00  0.00    -0.316 OA  
ATOM     22  O2  UNL     1      -1.610   2.215   1.953  1.00  0.00    -0.316 OA  
ATOM     23  C12 UNL     1      -1.730   1.525   3.215  1.00  0.00     0.337 C   
ENDBRANCH  14  15
ENDBRANCH  11  14
ENDBRANCH   7  11
ENDBRANCH   1   7
BRANCH   3  24
ATOM     24  C15 UNL     1       3.114   1.104  -1.199  1.00  0.00     0.192 C   
BRANCH  24  25
ATOM     25  C16 UNL     1       2.374   2.162  -0.463  1.00  0.00     0.087 A   
ATOM     26  N3  UNL     1       2.474   2.256   0.872  1.00  0.00    -0.184 NA  
ATOM     27  C23 UNL     1       1.519   3.161  -1.002  1.00  0.00     0.022 A   
ATOM     28  N4  UNL     1       1.712   3.326   1.179  1.00  0.00    -0.228 N   
ATOM     29  C18 UNL     1       1.100   3.906   0.097  1.00  0.00     0.059 A   
ATOM     30  C22 UNL     1       1.061   3.514  -2.285  1.00  0.00     0.012 A   
ATOM     31  C19 UNL     1       0.236   5.003  -0.022  1.00  0.00     0.026 A   
ATOM     32  C21 UNL     1       0.195   4.606  -2.420  1.00  0.00     0.001 A   
ATOM     33  C20 UNL     1      -0.209   5.338  -1.305  1.00  0.00     0.002 A   
ATOM     34  C17 UNL     1       1.629   3.770   2.550  1.00  0.00     0.159 C   
ENDBRANCH  24  25
ENDBRANCH   3  24
TORSDOF 7
