REMARK SMILES CN(C)c1ccc(-n2cc([C@@H]([NH2+]Cc3ccc4c(c3)OCO4)C(C)(C)C)nn2)cc1
REMARK SMILES IDX 8 1 9 2 10 3 27 4 28 5 7 6 4 7 5 8 30 9 6 10 29 11 2 12 1 13
REMARK SMILES IDX 3 14 11 15 12 16 13 19 14 20 15 21 19 22 16 23 18 24 17 25
REMARK SMILES IDX 20 26 22 27 21 28 23 29 24 30 25 31 26 32
REMARK H PARENT 12 17 12 18
ROOT
ATOM     1   N2  UNL     1      -0.555  -1.513  -0.512  1.00  0.00    -0.181 N   
ATOM     2   C7  UNL     1       0.078  -0.480  -1.180  1.00  0.00     0.135 A   
ATOM     3   C8  UNL     1       1.180  -0.177  -0.411  1.00  0.00     0.128 A   
ATOM     4   N4  UNL     1       1.185  -0.979   0.696  1.00  0.00    -0.131 NA  
ATOM     5   N5  UNL     1       0.130  -1.773   0.632  1.00  0.00    -0.071 NA  
ENDROOT
BRANCH   1   6
ATOM     6   C6  UNL     1      -1.728  -2.220  -0.867  1.00  0.00     0.058 A   
ATOM     7   C3  UNL     1      -4.101  -3.670  -1.545  1.00  0.00     0.028 A   
ATOM     8   C4  UNL     1      -3.589  -2.645  -2.361  1.00  0.00     0.025 A   
ATOM     9   C23 UNL     1      -3.380  -3.926  -0.366  1.00  0.00     0.025 A   
ATOM     10  C5  UNL     1      -2.423  -1.931  -2.041  1.00  0.00     0.028 A   
ATOM     11  C22 UNL     1      -2.213  -3.224  -0.028  1.00  0.00     0.028 A   
BRANCH   7  12
ATOM     12  N1  UNL     1      -5.275  -4.357  -1.864  1.00  0.00    -0.337 N   
ATOM     13  C1  UNL     1      -5.607  -5.584  -1.138  1.00  0.00     0.129 C   
ATOM     14  C2  UNL     1      -5.825  -4.258  -3.215  1.00  0.00     0.129 C   
ENDBRANCH   7  12
ENDBRANCH   1   6
BRANCH   3  15
ATOM     15  C9  UNL     1       2.245   0.870  -0.564  1.00  0.00     0.120 C   
BRANCH  15  16
ATOM     16  N3  UNL     1       2.657   1.345   0.810  1.00  0.00     0.250 N   
ATOM     17  H11 UNL     1       3.567   1.812   0.809  1.00  0.00     0.199 HD  
ATOM     18  H12 UNL     1       2.772   0.502   1.394  1.00  0.00     0.199 HD  
BRANCH  16  19
ATOM     19  C10 UNL     1       1.676   2.225   1.505  1.00  0.00     0.164 C   
BRANCH  19  20
ATOM     20  C11 UNL     1       2.163   2.562   2.885  1.00  0.00    -0.002 A   
ATOM     21  C12 UNL     1       1.879   1.697   3.970  1.00  0.00     0.012 A   
ATOM     22  C16 UNL     1       2.954   3.704   3.099  1.00  0.00     0.045 A   
ATOM     23  C13 UNL     1       2.362   1.972   5.253  1.00  0.00     0.037 A   
ATOM     24  C15 UNL     1       3.415   3.945   4.377  1.00  0.00     0.109 A   
ATOM     25  C14 UNL     1       3.128   3.104   5.424  1.00  0.00     0.108 A   
ATOM     26  O1  UNL     1       4.187   4.998   4.752  1.00  0.00    -0.316 OA  
ATOM     27  O2  UNL     1       3.681   3.524   6.591  1.00  0.00    -0.316 OA  
ATOM     28  C17 UNL     1       4.334   4.739   6.167  1.00  0.00     0.337 C   
ENDBRANCH  19  20
ENDBRANCH  16  19
ENDBRANCH  15  16
BRANCH  15  29
ATOM     29  C18 UNL     1       3.502   0.393  -1.374  1.00  0.00     0.010 C   
ATOM     30  C19 UNL     1       4.473   1.575  -1.603  1.00  0.00     0.017 C   
ATOM     31  C20 UNL     1       3.078  -0.113  -2.772  1.00  0.00     0.017 C   
ATOM     32  C21 UNL     1       4.273  -0.737  -0.664  1.00  0.00     0.017 C   
ENDBRANCH  15  29
ENDBRANCH   3  15
TORSDOF 7
