REMARK SMILES COc1cncc(CCn2cc([C@@H]([NH2+]Cc3ccc4c(c3)OCO4)C(C)C)nn2)c1
REMARK SMILES IDX 10 1 11 2 12 3 28 4 29 5 9 7 8 8 7 9 3 10 4 11 30 12 5 13
REMARK SMILES IDX 6 14 2 15 1 16 13 17 14 18 15 21 16 22 17 23 21 24 18 25
REMARK SMILES IDX 20 26 19 27 22 28 24 29 23 30 25 31 26 32 27 33
REMARK H PARENT 11 6 14 19 14 20
ROOT
ATOM     1   N2  UNL     1      -2.036   1.845   2.425  1.00  0.00    -0.212 N   
ATOM     2   C8  UNL     1      -2.486   1.118   1.353  1.00  0.00     0.045 A   
ATOM     3   C9  UNL     1      -1.822   1.672   0.276  1.00  0.00     0.127 A   
ATOM     4   N4  UNL     1      -1.148   2.789   0.704  1.00  0.00    -0.132 NA  
ATOM     5   N5  UNL     1      -1.277   2.878   2.018  1.00  0.00    -0.076 NA  
ATOM     6   H10 UNL     1      -3.091   0.229   1.481  1.00  0.00     0.083 HD  
ENDROOT
BRANCH   1   7
ATOM     7   C7  UNL     1      -2.004   1.410   3.809  1.00  0.00     0.139 C   
BRANCH   7   8
ATOM     8   C6  UNL     1      -0.686   0.701   4.176  1.00  0.00     0.058 C   
BRANCH   8   9
ATOM     9   C5  UNL     1      -0.329  -0.415   3.221  1.00  0.00    -0.025 A   
ATOM     10  C2  UNL     1      -0.586  -2.661   2.379  1.00  0.00     0.093 A   
ATOM     11  C3  UNL     1       0.146  -2.258   1.262  1.00  0.00     0.144 A   
ATOM     12  C22 UNL     1      -0.854  -1.706   3.357  1.00  0.00     0.040 A   
ATOM     13  N1  UNL     1       0.630  -1.003   1.060  1.00  0.00    -0.262 NA  
ATOM     14  C4  UNL     1       0.449  -0.145   2.095  1.00  0.00     0.114 A   
BRANCH  10  15
ATOM     15  O1  UNL     1      -0.999  -3.961   2.377  1.00  0.00    -0.348 OA  
ATOM     16  C1  UNL     1      -1.614  -4.450   3.566  1.00  0.00     0.203 C   
ENDBRANCH  10  15
ENDBRANCH   8   9
ENDBRANCH   7   8
ENDBRANCH   1   7
BRANCH   3  17
ATOM     17  C10 UNL     1      -1.620   1.199  -1.131  1.00  0.00     0.117 C   
BRANCH  17  18
ATOM     18  N3  UNL     1      -0.235   0.623  -1.325  1.00  0.00     0.249 N   
ATOM     19  H12 UNL     1      -0.174   0.119  -2.215  1.00  0.00     0.199 HD  
ATOM     20  H13 UNL     1      -0.043  -0.069  -0.573  1.00  0.00     0.199 HD  
BRANCH  18  21
ATOM     21  C11 UNL     1       0.880   1.623  -1.283  1.00  0.00     0.164 C   
BRANCH  21  22
ATOM     22  C12 UNL     1       2.151   1.142  -1.941  1.00  0.00    -0.002 A   
ATOM     23  C13 UNL     1       2.973   2.082  -2.622  1.00  0.00     0.012 A   
ATOM     24  C17 UNL     1       2.578  -0.197  -1.846  1.00  0.00     0.045 A   
ATOM     25  C14 UNL     1       4.179   1.697  -3.222  1.00  0.00     0.037 A   
ATOM     26  C16 UNL     1       3.764  -0.547  -2.461  1.00  0.00     0.109 A   
ATOM     27  C15 UNL     1       4.545   0.373  -3.129  1.00  0.00     0.108 A   
ATOM     28  O2  UNL     1       4.294  -1.800  -2.489  1.00  0.00    -0.316 OA  
ATOM     29  O3  UNL     1       5.673  -0.178  -3.648  1.00  0.00    -0.316 OA  
ATOM     30  C18 UNL     1       5.512  -1.559  -3.240  1.00  0.00     0.337 C   
ENDBRANCH  21  22
ENDBRANCH  18  21
ENDBRANCH  17  18
BRANCH  17  31
ATOM     31  C19 UNL     1      -2.691   0.197  -1.640  1.00  0.00     0.037 C   
ATOM     32  C20 UNL     1      -2.777   0.222  -3.173  1.00  0.00     0.014 C   
ATOM     33  C21 UNL     1      -2.490  -1.251  -1.178  1.00  0.00     0.014 C   
ENDBRANCH  17  31
ENDBRANCH   3  17
TORSDOF 9
