REMARK SMILES CC(C)(C)[C@H]([NH2+]Cc1ccc2c(c1)OCO2)c1cn(-c2ccc(F)cn2)nn1
REMARK SMILES IDX 5 1 2 2 1 3 3 4 4 5 6 6 7 9 8 10 9 11 13 12 10 13 12 14
REMARK SMILES IDX 11 15 14 16 16 17 15 18 17 19 18 20 28 21 19 22 27 23 20 24
REMARK SMILES IDX 21 25 26 26 22 27 25 28 23 29 24 30
REMARK H PARENT 6 7 6 8
ROOT
ATOM     1   C5  UNL     1       1.380  -1.285  -1.045  1.00  0.00     0.120 C   
ENDROOT
BRANCH   1   2
ATOM     2   C2  UNL     1       1.920  -2.692  -0.606  1.00  0.00     0.010 C   
ATOM     3   C1  UNL     1       1.379  -3.134   0.768  1.00  0.00     0.017 C   
ATOM     4   C3  UNL     1       3.465  -2.677  -0.537  1.00  0.00     0.017 C   
ATOM     5   C4  UNL     1       1.530  -3.764  -1.649  1.00  0.00     0.017 C   
ENDBRANCH   1   2
BRANCH   1   6
ATOM     6   N1  UNL     1       1.742  -0.240  -0.015  1.00  0.00     0.250 N   
ATOM     7   H11 UNL     1       1.058  -0.324   0.752  1.00  0.00     0.199 HD  
ATOM     8   H12 UNL     1       2.659  -0.409   0.407  1.00  0.00     0.199 HD  
BRANCH   6   9
ATOM     9   C6  UNL     1       1.698   1.171  -0.491  1.00  0.00     0.164 C   
BRANCH   9  10
ATOM     10  C7  UNL     1       2.001   2.113   0.639  1.00  0.00    -0.002 A   
ATOM     11  C8  UNL     1       0.961   2.554   1.493  1.00  0.00     0.012 A   
ATOM     12  C12 UNL     1       3.323   2.514   0.893  1.00  0.00     0.045 A   
ATOM     13  C9  UNL     1       1.231   3.395   2.578  1.00  0.00     0.037 A   
ATOM     14  C11 UNL     1       3.554   3.342   1.972  1.00  0.00     0.109 A   
ATOM     15  C10 UNL     1       2.539   3.771   2.790  1.00  0.00     0.108 A   
ATOM     16  O1  UNL     1       4.768   3.819   2.355  1.00  0.00    -0.316 OA  
ATOM     17  O2  UNL     1       2.984   4.574   3.791  1.00  0.00    -0.316 OA  
ATOM     18  C13 UNL     1       4.397   4.623   3.499  1.00  0.00     0.337 C   
ENDBRANCH   9  10
ENDBRANCH   6   9
ENDBRANCH   1   6
BRANCH   1  19
ATOM     19  C14 UNL     1      -0.103  -1.241  -1.276  1.00  0.00     0.128 A   
ATOM     20  C15 UNL     1      -0.849  -1.430  -2.416  1.00  0.00     0.137 A   
ATOM     21  N5  UNL     1      -0.942  -0.899  -0.248  1.00  0.00    -0.131 NA  
ATOM     22  N2  UNL     1      -2.159  -1.233  -2.024  1.00  0.00    -0.162 N   
ATOM     23  N4  UNL     1      -2.182  -0.891  -0.710  1.00  0.00    -0.070 NA  
BRANCH  22  24
ATOM     24  C16 UNL     1      -3.319  -1.338  -2.835  1.00  0.00     0.146 A   
ATOM     25  C17 UNL     1      -4.577  -1.110  -2.272  1.00  0.00     0.050 A   
ATOM     26  N3  UNL     1      -3.140  -1.660  -4.147  1.00  0.00    -0.236 NA  
ATOM     27  C18 UNL     1      -5.702  -1.220  -3.089  1.00  0.00     0.044 A   
ATOM     28  C20 UNL     1      -4.258  -1.758  -4.910  1.00  0.00     0.152 A   
ATOM     29  C19 UNL     1      -5.537  -1.548  -4.426  1.00  0.00     0.141 A   
ATOM     30  F1  UNL     1      -6.598  -1.660  -5.231  1.00  0.00    -0.205 F   
ENDBRANCH  22  24
ENDBRANCH   1  19
TORSDOF 6
