REMARK SMILES CC(C)(C)[C@H]([NH2+]Cc1ccc2c(c1)OCO2)c1cn(C(=O)c2nn[nH]c2Cl)nn1
REMARK SMILES IDX 17 1 18 2 19 3 28 4 29 5 5 6 2 7 1 8 3 9 4 10 6 11 7 14 8 15
REMARK SMILES IDX 9 16 13 17 10 18 12 19 11 20 14 21 16 22 15 23 20 24 21 25
REMARK SMILES IDX 22 26 23 27 26 28 24 29 25 30 27 31
REMARK H PARENT 6 12 6 13 25 32
ROOT
ATOM     1   C14 UNL     1      -1.318   0.464   0.950  1.00  0.00     0.128 A   
ATOM     2   C15 UNL     1      -1.879   0.051   2.136  1.00  0.00     0.139 A   
ATOM     3   N2  UNL     1      -2.476  -1.170   1.853  1.00  0.00    -0.142 N   
ATOM     4   N6  UNL     1      -2.225  -1.481   0.557  1.00  0.00    -0.068 NA  
ATOM     5   N7  UNL     1      -1.534  -0.498   0.003  1.00  0.00    -0.131 NA  
ENDROOT
BRANCH   1   6
ATOM     6   C5  UNL     1      -0.513   1.683   0.597  1.00  0.00     0.120 C   
BRANCH   6   7
ATOM     7   C2  UNL     1      -1.373   2.891   0.082  1.00  0.00     0.010 C   
ATOM     8   C1  UNL     1      -2.081   2.591  -1.254  1.00  0.00     0.017 C   
ATOM     9   C3  UNL     1      -2.449   3.268   1.127  1.00  0.00     0.017 C   
ATOM     10  C4  UNL     1      -0.482   4.141  -0.111  1.00  0.00     0.017 C   
ENDBRANCH   6   7
BRANCH   6  11
ATOM     11  N1  UNL     1       0.523   1.301  -0.436  1.00  0.00     0.250 N   
ATOM     12  H11 UNL     1       0.897   2.113  -0.933  1.00  0.00     0.199 HD  
ATOM     13  H12 UNL     1       0.043   0.730  -1.148  1.00  0.00     0.199 HD  
BRANCH  11  14
ATOM     14  C6  UNL     1       1.669   0.495   0.072  1.00  0.00     0.164 C   
BRANCH  14  15
ATOM     15  C7  UNL     1       2.609   0.155  -1.050  1.00  0.00    -0.002 A   
ATOM     16  C8  UNL     1       3.733   0.972  -1.318  1.00  0.00     0.012 A   
ATOM     17  C12 UNL     1       2.342  -0.951  -1.876  1.00  0.00     0.045 A   
ATOM     18  C9  UNL     1       4.588   0.686  -2.388  1.00  0.00     0.037 A   
ATOM     19  C11 UNL     1       3.205  -1.204  -2.922  1.00  0.00     0.109 A   
ATOM     20  C10 UNL     1       4.297  -0.409  -3.171  1.00  0.00     0.108 A   
ATOM     21  O1  UNL     1       3.093  -2.226  -3.810  1.00  0.00    -0.316 OA  
ATOM     22  O2  UNL     1       5.011  -0.832  -4.246  1.00  0.00    -0.316 OA  
ATOM     23  C13 UNL     1       4.259  -2.002  -4.635  1.00  0.00     0.337 C   
ENDBRANCH  14  15
ENDBRANCH  11  14
ENDBRANCH   6  11
ENDBRANCH   1   6
BRANCH   3  24
ATOM     24  C16 UNL     1      -3.203  -2.007   2.722  1.00  0.00     0.294 C   
ATOM     25  O3  UNL     1      -3.294  -1.594   3.878  1.00  0.00    -0.267 OA  
BRANCH  24  26
ATOM     26  C17 UNL     1      -3.801  -3.264   2.308  1.00  0.00     0.186 A   
ATOM     27  N3  UNL     1      -3.764  -3.760   1.023  1.00  0.00    -0.126 NA  
ATOM     28  C18 UNL     1      -4.499  -4.163   3.076  1.00  0.00     0.148 A   
ATOM     29  N4  UNL     1      -4.411  -4.920   0.993  1.00  0.00    -0.077 NA  
ATOM     30  N5  UNL     1      -4.858  -5.166   2.236  1.00  0.00    -0.206 N   
ATOM     31  CL1 UNL     1      -4.955  -4.258   4.701  1.00  0.00    -0.063 Cl  
ATOM     32  H21 UNL     1      -5.384  -6.013   2.422  1.00  0.00     0.178 HD  
ENDBRANCH  24  26
ENDBRANCH   3  24
TORSDOF 7
