REMARK SMILES CC(C)(C)n1cc(Cn2cc([C@@H]([NH2+]Cc3ccc4c(c3)OCO4)C3CCCCC3)nn2)cn1
REMARK SMILES IDX 9 1 10 2 11 3 30 4 31 5 8 7 7 8 5 9 6 10 33 11 32 12 2 13
REMARK SMILES IDX 1 14 3 15 4 16 12 17 13 18 14 21 15 22 16 23 20 24 17 25
REMARK SMILES IDX 19 26 18 27 21 28 23 29 22 30 24 31 25 32 29 33 26 34 28 35
REMARK SMILES IDX 27 36
REMARK H PARENT 10 6 13 19 13 20
ROOT
ATOM     1   N2  UNL     1      -0.978   1.575  -0.750  1.00  0.00    -0.208 N   
ATOM     2   C8  UNL     1       0.340   1.454  -0.397  1.00  0.00     0.046 A   
ATOM     3   C9  UNL     1       0.840   0.532  -1.290  1.00  0.00     0.127 A   
ATOM     4   N4  UNL     1      -0.162   0.146  -2.144  1.00  0.00    -0.132 NA  
ATOM     5   N5  UNL     1      -1.266   0.788  -1.805  1.00  0.00    -0.076 NA  
ATOM     6   H13 UNL     1       0.762   1.986   0.444  1.00  0.00     0.083 HD  
ENDROOT
BRANCH   1   7
ATOM     7   C7  UNL     1      -2.024   2.330  -0.077  1.00  0.00     0.172 C   
BRANCH   7   8
ATOM     8   C6  UNL     1      -2.434   1.625   1.166  1.00  0.00     0.007 A   
ATOM     9   N1  UNL     1      -2.817   1.034   3.265  1.00  0.00    -0.227 N   
ATOM     10  C5  UNL     1      -2.325   2.046   2.477  1.00  0.00     0.103 A   
ATOM     11  N6  UNL     1      -3.242  -0.015   2.530  1.00  0.00    -0.189 NA  
ATOM     12  C25 UNL     1      -3.036   0.352   1.268  1.00  0.00     0.138 A   
BRANCH   9  13
ATOM     13  C2  UNL     1      -2.975   1.036   4.732  1.00  0.00     0.047 C   
ATOM     14  C1  UNL     1      -4.214   1.871   5.097  1.00  0.00     0.034 C   
ATOM     15  C3  UNL     1      -3.159  -0.395   5.286  1.00  0.00     0.034 C   
ATOM     16  C4  UNL     1      -1.729   1.638   5.414  1.00  0.00     0.034 C   
ENDBRANCH   9  13
ENDBRANCH   7   8
ENDBRANCH   1   7
BRANCH   3  17
ATOM     17  C10 UNL     1       2.178  -0.127  -1.391  1.00  0.00     0.117 C   
BRANCH  17  18
ATOM     18  N3  UNL     1       1.998  -1.561  -1.831  1.00  0.00     0.249 N   
ATOM     19  H15 UNL     1       1.326  -1.549  -2.614  1.00  0.00     0.199 HD  
ATOM     20  H16 UNL     1       2.868  -1.959  -2.202  1.00  0.00     0.199 HD  
BRANCH  18  21
ATOM     21  C11 UNL     1       1.443  -2.477  -0.795  1.00  0.00     0.164 C   
BRANCH  21  22
ATOM     22  C12 UNL     1       1.185  -3.837  -1.378  1.00  0.00    -0.002 A   
ATOM     23  C13 UNL     1      -0.025  -4.089  -2.070  1.00  0.00     0.012 A   
ATOM     24  C17 UNL     1       2.155  -4.850  -1.286  1.00  0.00     0.045 A   
ATOM     25  C14 UNL     1      -0.273  -5.335  -2.654  1.00  0.00     0.037 A   
ATOM     26  C16 UNL     1       1.879  -6.067  -1.873  1.00  0.00     0.109 A   
ATOM     27  C15 UNL     1       0.700  -6.303  -2.538  1.00  0.00     0.108 A   
ATOM     28  O1  UNL     1       2.703  -7.148  -1.877  1.00  0.00    -0.316 OA  
ATOM     29  O2  UNL     1       0.634  -7.562  -3.044  1.00  0.00    -0.316 OA  
ATOM     30  C18 UNL     1       1.892  -8.108  -2.594  1.00  0.00     0.337 C   
ENDBRANCH  21  22
ENDBRANCH  18  21
ENDBRANCH  17  18
BRANCH  17  31
ATOM     31  C19 UNL     1       3.163   0.568  -2.367  1.00  0.00     0.043 C   
ATOM     32  C20 UNL     1       2.657   0.662  -3.820  1.00  0.00     0.010 C   
ATOM     33  C24 UNL     1       3.574   1.963  -1.855  1.00  0.00     0.010 C   
ATOM     34  C21 UNL     1       3.683   1.331  -4.734  1.00  0.00     0.001 C   
ATOM     35  C23 UNL     1       4.605   2.618  -2.772  1.00  0.00     0.001 C   
ATOM     36  C22 UNL     1       4.102   2.700  -4.209  1.00  0.00     0.000 C   
ENDBRANCH  17  31
ENDBRANCH   3  17
TORSDOF 8
