REMARK SMILES COc1cc(C)cc(F)c1Cn1cc([C@@H]([NH2+]Cc2ccc3c(c2)OCO3)C2CCCC2)nn1
REMARK SMILES IDX 12 1 13 2 14 3 32 4 33 5 11 7 10 8 3 9 4 10 5 11 8 12 7 13
REMARK SMILES IDX 6 14 9 15 2 16 1 17 15 18 16 19 17 22 18 23 19 24 23 25
REMARK SMILES IDX 20 26 22 27 21 28 24 29 26 30 25 31 27 32 28 33 31 34 29 35
REMARK SMILES IDX 30 36
REMARK H PARENT 13 6 16 20 16 21
ROOT
ATOM     1   N1  UNL     1      -0.190   2.319  -1.215  1.00  0.00    -0.208 N   
ATOM     2   C10 UNL     1      -0.106   1.121  -1.874  1.00  0.00     0.046 A   
ATOM     3   C11 UNL     1      -1.028   0.324  -1.236  1.00  0.00     0.127 A   
ATOM     4   N3  UNL     1      -1.634   1.044  -0.239  1.00  0.00    -0.132 NA  
ATOM     5   N4  UNL     1      -1.112   2.259  -0.234  1.00  0.00    -0.076 NA  
ATOM     6   H11 UNL     1       0.581   0.962  -2.694  1.00  0.00     0.083 HD  
ENDROOT
BRANCH   1   7
ATOM     7   C9  UNL     1       0.541   3.546  -1.487  1.00  0.00     0.175 C   
BRANCH   7   8
ATOM     8   C8  UNL     1       1.878   3.551  -0.795  1.00  0.00     0.037 A   
ATOM     9   C2  UNL     1       2.068   4.161   0.455  1.00  0.00     0.083 A   
ATOM     10  C3  UNL     1       3.333   4.128   1.057  1.00  0.00     0.037 A   
ATOM     11  C4  UNL     1       4.414   3.482   0.435  1.00  0.00    -0.046 A   
ATOM     12  C7  UNL     1       2.966   2.918  -1.405  1.00  0.00     0.130 A   
ATOM     13  C6  UNL     1       4.222   2.885  -0.811  1.00  0.00     0.043 A   
ATOM     14  C5  UNL     1       5.773   3.492   1.073  1.00  0.00     0.044 C   
ATOM     15  F1  UNL     1       2.800   2.317  -2.593  1.00  0.00    -0.207 F   
BRANCH   9  16
ATOM     16  O1  UNL     1       0.962   4.758   0.997  1.00  0.00    -0.349 OA  
ATOM     17  C1  UNL     1       1.117   5.434   2.240  1.00  0.00     0.203 C   
ENDBRANCH   9  16
ENDBRANCH   7   8
ENDBRANCH   1   7
BRANCH   3  18
ATOM     18  C12 UNL     1      -1.391  -1.114  -1.422  1.00  0.00     0.117 C   
BRANCH  18  19
ATOM     19  N2  UNL     1      -1.702  -1.726  -0.078  1.00  0.00     0.249 N   
ATOM     20  H13 UNL     1      -2.353  -1.082   0.395  1.00  0.00     0.199 HD  
ATOM     21  H14 UNL     1      -2.192  -2.621  -0.166  1.00  0.00     0.199 HD  
BRANCH  19  22
ATOM     22  C13 UNL     1      -0.530  -1.911   0.823  1.00  0.00     0.164 C   
BRANCH  22  23
ATOM     23  C14 UNL     1      -0.970  -2.477   2.143  1.00  0.00    -0.002 A   
ATOM     24  C15 UNL     1      -1.417  -1.612   3.171  1.00  0.00     0.012 A   
ATOM     25  C19 UNL     1      -0.994  -3.867   2.347  1.00  0.00     0.045 A   
ATOM     26  C16 UNL     1      -1.871  -2.123   4.392  1.00  0.00     0.037 A   
ATOM     27  C18 UNL     1      -1.448  -4.337   3.562  1.00  0.00     0.109 A   
ATOM     28  C17 UNL     1      -1.874  -3.490   4.556  1.00  0.00     0.108 A   
ATOM     29  O2  UNL     1      -1.534  -5.644   3.920  1.00  0.00    -0.316 OA  
ATOM     30  O3  UNL     1      -2.280  -4.159   5.666  1.00  0.00    -0.316 OA  
ATOM     31  C20 UNL     1      -2.042  -5.526   5.269  1.00  0.00     0.337 C   
ENDBRANCH  22  23
ENDBRANCH  19  22
ENDBRANCH  18  19
BRANCH  18  32
ATOM     32  C21 UNL     1      -2.621  -1.285  -2.335  1.00  0.00     0.043 C   
ATOM     33  C22 UNL     1      -2.386  -0.794  -3.768  1.00  0.00     0.010 C   
ATOM     34  C25 UNL     1      -3.034  -2.742  -2.573  1.00  0.00     0.010 C   
ATOM     35  C23 UNL     1      -3.533  -1.408  -4.558  1.00  0.00     0.001 C   
ATOM     36  C24 UNL     1      -3.867  -2.719  -3.852  1.00  0.00     0.001 C   
ENDBRANCH  18  32
ENDBRANCH   3  18
TORSDOF 8
