REMARK SMILES CC(C)C[C@H]([NH2+]Cc1ccc2c(c1)OCO2)c1cn(CCc2[nH]nc3c2CCCC3)nn1
REMARK SMILES IDX 17 1 18 2 19 3 31 4 32 5 5 7 4 8 2 9 1 10 3 11 6 12 7 15
REMARK SMILES IDX 8 16 9 17 13 18 10 19 12 20 11 21 14 22 16 23 15 24 20 25
REMARK SMILES IDX 21 26 22 27 23 28 26 29 24 30 25 31 27 32 30 33 28 34 29 35
REMARK H PARENT 18 6 6 13 6 14 23 36
ROOT
ATOM     1   C14 UNL     1      -1.372   1.898   0.805  1.00  0.00     0.127 A   
ATOM     2   C15 UNL     1      -1.653   1.710   2.143  1.00  0.00     0.045 A   
ATOM     3   N2  UNL     1      -2.982   1.371   2.150  1.00  0.00    -0.212 N   
ATOM     4   N5  UNL     1      -3.522   1.528   0.925  1.00  0.00    -0.076 NA  
ATOM     5   N6  UNL     1      -2.543   1.854   0.093  1.00  0.00    -0.132 NA  
ATOM     6   H20 UNL     1      -1.030   1.613   3.021  1.00  0.00     0.083 HD  
ENDROOT
BRANCH   1   7
ATOM     7   C5  UNL     1      -0.045   1.948   0.117  1.00  0.00     0.114 C   
BRANCH   7   8
ATOM     8   C4  UNL     1       0.220   3.299  -0.569  1.00  0.00     0.064 C   
BRANCH   8   9
ATOM     9   C2  UNL     1       1.562   3.434  -1.319  1.00  0.00    -0.012 C   
ATOM     10  C1  UNL     1       1.678   4.839  -1.916  1.00  0.00     0.007 C   
ATOM     11  C3  UNL     1       2.770   3.160  -0.424  1.00  0.00     0.007 C   
ENDBRANCH   8   9
ENDBRANCH   7   8
BRANCH   7  12
ATOM     12  N1  UNL     1       0.166   0.778  -0.805  1.00  0.00     0.249 N   
ATOM     13  H11 UNL     1      -0.028  -0.085  -0.248  1.00  0.00     0.199 HD  
ATOM     14  H12 UNL     1       1.149   0.709  -1.079  1.00  0.00     0.199 HD  
BRANCH  12  15
ATOM     15  C6  UNL     1      -0.693   0.657  -2.019  1.00  0.00     0.164 C   
BRANCH  15  16
ATOM     16  C7  UNL     1      -0.116  -0.276  -3.058  1.00  0.00    -0.002 A   
ATOM     17  C8  UNL     1      -0.215   0.066  -4.431  1.00  0.00     0.012 A   
ATOM     18  C12 UNL     1       0.467  -1.507  -2.704  1.00  0.00     0.045 A   
ATOM     19  C9  UNL     1       0.270  -0.788  -5.428  1.00  0.00     0.037 A   
ATOM     20  C11 UNL     1       0.941  -2.323  -3.711  1.00  0.00     0.109 A   
ATOM     21  C10 UNL     1       0.839  -1.978  -5.036  1.00  0.00     0.108 A   
ATOM     22  O1  UNL     1       1.544  -3.527  -3.531  1.00  0.00    -0.316 OA  
ATOM     23  O2  UNL     1       1.349  -2.929  -5.861  1.00  0.00    -0.316 OA  
ATOM     24  C13 UNL     1       1.786  -3.918  -4.903  1.00  0.00     0.337 C   
ENDBRANCH  15  16
ENDBRANCH  12  15
ENDBRANCH   7  12
ENDBRANCH   1   7
BRANCH   3  25
ATOM     25  C16 UNL     1      -3.645   0.548   3.148  1.00  0.00     0.140 C   
BRANCH  25  26
ATOM     26  C17 UNL     1      -3.683  -0.945   2.760  1.00  0.00     0.074 C   
BRANCH  26  27
ATOM     27  C18 UNL     1      -2.371  -1.426   2.219  1.00  0.00     0.032 A   
ATOM     28  N3  UNL     1      -2.104  -1.380   0.871  1.00  0.00    -0.242 N   
ATOM     29  C20 UNL     1      -1.218  -1.899   2.802  1.00  0.00    -0.006 A   
ATOM     30  N4  UNL     1      -0.779  -1.494   0.587  1.00  0.00    -0.189 NA  
ATOM     31  C19 UNL     1      -0.277  -1.952   1.743  1.00  0.00     0.063 A   
ATOM     32  C21 UNL     1      -0.892  -2.261   4.208  1.00  0.00     0.039 C   
ATOM     33  C24 UNL     1       1.149  -2.348   1.924  1.00  0.00     0.058 C   
ATOM     34  C22 UNL     1       0.630  -2.310   4.427  1.00  0.00     0.005 C   
ATOM     35  C23 UNL     1       1.357  -3.043   3.282  1.00  0.00     0.007 C   
ATOM     36  H25 UNL     1      -2.752  -1.127   0.128  1.00  0.00     0.175 HD  
ENDBRANCH  26  27
ENDBRANCH  25  26
ENDBRANCH   3  25
TORSDOF 9
