REMARK SMILES COc1ccccc1CCn1cc([C@@H]([NH2+]Cc2ccc3c(c2)OCO3)C2CCCCC2)nn1
REMARK SMILES IDX 11 1 12 2 13 3 32 4 33 5 10 7 9 8 8 9 3 10 4 11 5 12 7 13
REMARK SMILES IDX 6 14 2 15 1 16 14 17 15 18 16 21 17 22 18 23 22 24 19 25
REMARK SMILES IDX 21 26 20 27 23 28 25 29 24 30 26 31 27 32 31 33 28 34 30 35
REMARK SMILES IDX 29 36
REMARK H PARENT 12 6 15 19 15 20
ROOT
ATOM     1   N1  UNL     1       1.320  -2.649   1.762  1.00  0.00    -0.212 N   
ATOM     2   C10 UNL     1       1.161  -1.331   1.437  1.00  0.00     0.045 A   
ATOM     3   C11 UNL     1      -0.144  -1.061   1.780  1.00  0.00     0.127 A   
ATOM     4   N3  UNL     1      -0.721  -2.197   2.287  1.00  0.00    -0.132 NA  
ATOM     5   N4  UNL     1       0.184  -3.162   2.269  1.00  0.00    -0.076 NA  
ATOM     6   H12 UNL     1       1.953  -0.748   0.988  1.00  0.00     0.083 HD  
ENDROOT
BRANCH   1   7
ATOM     7   C9  UNL     1       2.496  -3.473   1.583  1.00  0.00     0.139 C   
BRANCH   7   8
ATOM     8   C8  UNL     1       2.393  -4.407   0.376  1.00  0.00     0.059 C   
BRANCH   8   9
ATOM     9   C7  UNL     1       2.140  -3.704  -0.944  1.00  0.00    -0.016 A   
ATOM     10  C2  UNL     1       3.099  -2.852  -1.523  1.00  0.00     0.078 A   
ATOM     11  C3  UNL     1       2.817  -2.215  -2.736  1.00  0.00     0.034 A   
ATOM     12  C4  UNL     1       1.604  -2.444  -3.389  1.00  0.00     0.003 A   
ATOM     13  C6  UNL     1       0.924  -3.926  -1.614  1.00  0.00     0.006 A   
ATOM     14  C5  UNL     1       0.661  -3.304  -2.833  1.00  0.00     0.000 A   
BRANCH  10  15
ATOM     15  O1  UNL     1       4.262  -2.686  -0.819  1.00  0.00    -0.349 OA  
ATOM     16  C1  UNL     1       5.386  -2.203  -1.551  1.00  0.00     0.203 C   
ENDBRANCH  10  15
ENDBRANCH   8   9
ENDBRANCH   7   8
ENDBRANCH   1   7
BRANCH   3  17
ATOM     17  C12 UNL     1      -0.970   0.169   1.598  1.00  0.00     0.117 C   
BRANCH  17  18
ATOM     18  N2  UNL     1      -2.391  -0.212   1.237  1.00  0.00     0.249 N   
ATOM     19  H14 UNL     1      -2.686  -0.905   1.938  1.00  0.00     0.199 HD  
ATOM     20  H15 UNL     1      -3.009   0.600   1.322  1.00  0.00     0.199 HD  
BRANCH  18  21
ATOM     21  C13 UNL     1      -2.584  -0.846  -0.101  1.00  0.00     0.164 C   
BRANCH  21  22
ATOM     22  C14 UNL     1      -2.354   0.105  -1.241  1.00  0.00    -0.002 A   
ATOM     23  C15 UNL     1      -3.334   1.067  -1.584  1.00  0.00     0.012 A   
ATOM     24  C19 UNL     1      -1.145   0.064  -1.958  1.00  0.00     0.045 A   
ATOM     25  C16 UNL     1      -3.116   1.973  -2.628  1.00  0.00     0.037 A   
ATOM     26  C18 UNL     1      -0.961   0.971  -2.980  1.00  0.00     0.109 A   
ATOM     27  C17 UNL     1      -1.919   1.898  -3.306  1.00  0.00     0.108 A   
ATOM     28  O2  UNL     1       0.145   1.069  -3.764  1.00  0.00    -0.316 OA  
ATOM     29  O3  UNL     1      -1.539   2.696  -4.338  1.00  0.00    -0.316 OA  
ATOM     30  C20 UNL     1      -0.242   2.144  -4.650  1.00  0.00     0.337 C   
ENDBRANCH  21  22
ENDBRANCH  18  21
ENDBRANCH  17  18
BRANCH  17  31
ATOM     31  C21 UNL     1      -1.010   1.104   2.837  1.00  0.00     0.043 C   
ATOM     32  C22 UNL     1      -1.595   0.458   4.108  1.00  0.00     0.010 C   
ATOM     33  C26 UNL     1       0.379   1.703   3.136  1.00  0.00     0.010 C   
ATOM     34  C23 UNL     1      -1.634   1.445   5.274  1.00  0.00     0.001 C   
ATOM     35  C25 UNL     1       0.331   2.689   4.301  1.00  0.00     0.001 C   
ATOM     36  C24 UNL     1      -0.261   2.049   5.552  1.00  0.00     0.000 C   
ENDBRANCH  17  31
ENDBRANCH   3  17
TORSDOF 9
