REMARK SMILES CC(C)(C)[C@H]([NH2+]Cc1ccc2c(c1)OCO2)c1cn([C@H](CO)c2ccc[nH]2)nn1
REMARK SMILES IDX 17 1 18 2 19 3 28 4 29 5 5 7 2 8 1 9 3 10 4 11 6 12 7 15
REMARK SMILES IDX 8 16 9 17 13 18 10 19 12 20 11 21 14 22 16 23 15 24 20 25
REMARK SMILES IDX 21 26 22 27 23 29 24 30 27 31 25 32 26 33
REMARK H PARENT 18 6 6 13 6 14 22 28 27 34
ROOT
ATOM     1   C14 UNL     1      -0.170  -0.319   1.004  1.00  0.00     0.127 A   
ATOM     2   C15 UNL     1      -0.169  -1.310   1.958  1.00  0.00     0.046 A   
ATOM     3   N2  UNL     1      -1.125  -2.193   1.529  1.00  0.00    -0.201 N   
ATOM     4   N4  UNL     1      -1.686  -1.758   0.380  1.00  0.00    -0.075 NA  
ATOM     5   N5  UNL     1      -1.106  -0.617   0.047  1.00  0.00    -0.132 NA  
ATOM     6   H20 UNL     1       0.407  -1.479   2.857  1.00  0.00     0.083 HD  
ENDROOT
BRANCH   1   7
ATOM     7   C5  UNL     1       0.704   0.885   0.831  1.00  0.00     0.120 C   
BRANCH   7   8
ATOM     8   C2  UNL     1       0.108   2.206   1.432  1.00  0.00     0.010 C   
ATOM     9   C1  UNL     1       1.138   3.356   1.326  1.00  0.00     0.017 C   
ATOM     10  C3  UNL     1      -1.187   2.652   0.726  1.00  0.00     0.017 C   
ATOM     11  C4  UNL     1      -0.198   2.015   2.935  1.00  0.00     0.017 C   
ENDBRANCH   7   8
BRANCH   7  12
ATOM     12  N1  UNL     1       0.993   1.058  -0.642  1.00  0.00     0.250 N   
ATOM     13  H11 UNL     1       0.095   0.941  -1.135  1.00  0.00     0.199 HD  
ATOM     14  H12 UNL     1       1.326   1.997  -0.872  1.00  0.00     0.199 HD  
BRANCH  12  15
ATOM     15  C6  UNL     1       1.938   0.061  -1.221  1.00  0.00     0.164 C   
BRANCH  15  16
ATOM     16  C7  UNL     1       2.111   0.297  -2.695  1.00  0.00    -0.002 A   
ATOM     17  C8  UNL     1       1.217  -0.297  -3.619  1.00  0.00     0.012 A   
ATOM     18  C12 UNL     1       3.126   1.149  -3.162  1.00  0.00     0.045 A   
ATOM     19  C9  UNL     1       1.340  -0.058  -4.991  1.00  0.00     0.037 A   
ATOM     20  C11 UNL     1       3.217   1.364  -4.521  1.00  0.00     0.109 A   
ATOM     21  C10 UNL     1       2.351   0.777  -5.410  1.00  0.00     0.108 A   
ATOM     22  O1  UNL     1       4.136   2.155  -5.135  1.00  0.00    -0.316 OA  
ATOM     23  O2  UNL     1       2.617   1.121  -6.697  1.00  0.00    -0.316 OA  
ATOM     24  C13 UNL     1       3.766   1.979  -6.522  1.00  0.00     0.337 C   
ENDBRANCH  15  16
ENDBRANCH  12  15
ENDBRANCH   7  12
ENDBRANCH   1   7
BRANCH   3  25
ATOM     25  C16 UNL     1      -1.551  -3.461   2.123  1.00  0.00     0.169 C   
BRANCH  25  26
ATOM     26  C17 UNL     1      -2.466  -3.234   3.341  1.00  0.00     0.187 C   
BRANCH  26  27
ATOM     27  O3  UNL     1      -1.771  -2.644   4.449  1.00  0.00    -0.394 OA  
ATOM     28  H24 UNL     1      -2.430  -2.536   5.162  1.00  0.00     0.210 HD  
ENDBRANCH  26  27
ENDBRANCH  25  26
BRANCH  25  29
ATOM     29  C18 UNL     1      -0.356  -4.344   2.395  1.00  0.00     0.032 A   
ATOM     30  C19 UNL     1       0.325  -5.208   1.557  1.00  0.00     0.022 A   
ATOM     31  N3  UNL     1       0.259  -4.401   3.627  1.00  0.00    -0.323 N   
ATOM     32  C20 UNL     1       1.383  -5.784   2.301  1.00  0.00     0.017 A   
ATOM     33  C21 UNL     1       1.319  -5.265   3.573  1.00  0.00     0.072 A   
ATOM     34  H28 UNL     1      -0.040  -3.880   4.447  1.00  0.00     0.152 HD  
ENDBRANCH  25  29
ENDBRANCH   3  25
TORSDOF 9
