REMARK SMILES CC(C)(C)[C@H]([NH2+]Cc1ccc2c(c1)OCO2)c1cn([C@@H](CO)c2ccc[nH]2)nn1
REMARK SMILES IDX 17 1 18 2 19 3 28 4 29 5 5 7 2 8 1 9 3 10 4 11 6 12 7 15
REMARK SMILES IDX 8 16 9 17 13 18 10 19 12 20 11 21 14 22 16 23 15 24 20 25
REMARK SMILES IDX 21 26 22 27 23 29 24 30 27 31 25 32 26 33
REMARK H PARENT 18 6 6 13 6 14 22 28 27 34
ROOT
ATOM     1   C14 UNL     1      -0.924  -1.297   0.211  1.00  0.00     0.127 A   
ATOM     2   C15 UNL     1      -1.533  -0.361   1.014  1.00  0.00     0.046 A   
ATOM     3   N2  UNL     1      -1.371  -0.850   2.284  1.00  0.00    -0.201 N   
ATOM     4   N4  UNL     1      -0.655  -1.997   2.260  1.00  0.00    -0.075 NA  
ATOM     5   N5  UNL     1      -0.382  -2.282   0.998  1.00  0.00    -0.132 NA  
ATOM     6   H20 UNL     1      -2.044   0.570   0.814  1.00  0.00     0.083 HD  
ENDROOT
BRANCH   1   7
ATOM     7   C5  UNL     1      -0.698  -1.337  -1.269  1.00  0.00     0.120 C   
BRANCH   7   8
ATOM     8   C2  UNL     1      -1.770  -2.162  -2.062  1.00  0.00     0.010 C   
ATOM     9   C1  UNL     1      -3.182  -1.588  -1.798  1.00  0.00     0.017 C   
ATOM     10  C3  UNL     1      -1.514  -2.044  -3.582  1.00  0.00     0.017 C   
ATOM     11  C4  UNL     1      -1.780  -3.656  -1.681  1.00  0.00     0.017 C   
ENDBRANCH   7   8
BRANCH   7  12
ATOM     12  N1  UNL     1       0.695  -1.894  -1.514  1.00  0.00     0.250 N   
ATOM     13  H11 UNL     1       0.926  -2.438  -0.667  1.00  0.00     0.199 HD  
ATOM     14  H12 UNL     1       0.699  -2.575  -2.277  1.00  0.00     0.199 HD  
BRANCH  12  15
ATOM     15  C6  UNL     1       1.780  -0.897  -1.743  1.00  0.00     0.164 C   
BRANCH  15  16
ATOM     16  C7  UNL     1       1.974   0.075  -0.613  1.00  0.00    -0.002 A   
ATOM     17  C8  UNL     1       2.499  -0.358   0.629  1.00  0.00     0.012 A   
ATOM     18  C12 UNL     1       1.599   1.421  -0.769  1.00  0.00     0.045 A   
ATOM     19  C9  UNL     1       2.629   0.527   1.706  1.00  0.00     0.037 A   
ATOM     20  C11 UNL     1       1.742   2.267   0.310  1.00  0.00     0.109 A   
ATOM     21  C10 UNL     1       2.237   1.833   1.515  1.00  0.00     0.108 A   
ATOM     22  O1  UNL     1       1.412   3.585   0.327  1.00  0.00    -0.316 OA  
ATOM     23  O2  UNL     1       2.264   2.820   2.450  1.00  0.00    -0.316 OA  
ATOM     24  C13 UNL     1       1.799   3.946   1.670  1.00  0.00     0.337 C   
ENDBRANCH  15  16
ENDBRANCH  12  15
ENDBRANCH   7  12
ENDBRANCH   1   7
BRANCH   3  25
ATOM     25  C16 UNL     1      -1.807  -0.291   3.566  1.00  0.00     0.169 C   
BRANCH  25  26
ATOM     26  C17 UNL     1      -0.709   0.601   4.176  1.00  0.00     0.187 C   
BRANCH  26  27
ATOM     27  O3  UNL     1      -0.507   1.807   3.425  1.00  0.00    -0.394 OA  
ATOM     28  H24 UNL     1       0.348   2.176   3.723  1.00  0.00     0.210 HD  
ENDBRANCH  26  27
ENDBRANCH  25  26
BRANCH  25  29
ATOM     29  C18 UNL     1      -3.155   0.377   3.448  1.00  0.00     0.032 A   
ATOM     30  C19 UNL     1      -4.429  -0.160   3.492  1.00  0.00     0.022 A   
ATOM     31  N3  UNL     1      -3.292   1.736   3.258  1.00  0.00    -0.323 N   
ATOM     32  C20 UNL     1      -5.349   0.900   3.313  1.00  0.00     0.017 A   
ATOM     33  C21 UNL     1      -4.619   2.057   3.167  1.00  0.00     0.072 A   
ATOM     34  H28 UNL     1      -2.517   2.390   3.198  1.00  0.00     0.152 HD  
ENDBRANCH  25  29
ENDBRANCH   3  25
TORSDOF 9
