REMARK SMILES CC(C)C[C@H]([NH2+]Cc1ccc2c(c1)OCO2)c1cn(Cc2scnc2C2CC2)nn1
REMARK SMILES IDX 17 1 18 2 19 3 29 4 30 5 5 7 4 8 2 9 1 10 3 11 6 12 7 15
REMARK SMILES IDX 8 16 9 17 13 18 10 19 12 20 11 21 14 22 16 23 15 24 20 25
REMARK SMILES IDX 21 26 22 27 25 28 23 29 24 30 26 31 27 32 28 33
REMARK H PARENT 18 6 6 13 6 14
ROOT
ATOM     1   C14 UNL     1      -0.631  -0.982  -0.309  1.00  0.00     0.127 A   
ATOM     2   C15 UNL     1      -0.611  -1.098   1.063  1.00  0.00     0.046 A   
ATOM     3   N2  UNL     1      -1.219  -2.301   1.308  1.00  0.00    -0.207 N   
ATOM     4   N4  UNL     1      -1.500  -2.930   0.149  1.00  0.00    -0.076 NA  
ATOM     5   N5  UNL     1      -1.168  -2.122  -0.847  1.00  0.00    -0.132 NA  
ATOM     6   H20 UNL     1      -0.266  -0.447   1.855  1.00  0.00     0.083 HD  
ENDROOT
BRANCH   1   7
ATOM     7   C5  UNL     1      -0.149   0.108  -1.207  1.00  0.00     0.114 C   
BRANCH   7   8
ATOM     8   C4  UNL     1      -1.285   1.051  -1.651  1.00  0.00     0.064 C   
BRANCH   8   9
ATOM     9   C2  UNL     1      -1.966   1.847  -0.516  1.00  0.00    -0.012 C   
ATOM     10  C1  UNL     1      -3.089   2.710  -1.100  1.00  0.00     0.007 C   
ATOM     11  C3  UNL     1      -0.983   2.730   0.251  1.00  0.00     0.007 C   
ENDBRANCH   8   9
ENDBRANCH   7   8
BRANCH   7  12
ATOM     12  N1  UNL     1       0.453  -0.476  -2.470  1.00  0.00     0.249 N   
ATOM     13  H11 UNL     1      -0.247  -1.127  -2.851  1.00  0.00     0.199 HD  
ATOM     14  H12 UNL     1       0.592   0.265  -3.163  1.00  0.00     0.199 HD  
BRANCH  12  15
ATOM     15  C6  UNL     1       1.731  -1.231  -2.303  1.00  0.00     0.164 C   
BRANCH  15  16
ATOM     16  C7  UNL     1       2.867  -0.357  -1.848  1.00  0.00    -0.002 A   
ATOM     17  C8  UNL     1       3.341  -0.437  -0.517  1.00  0.00     0.012 A   
ATOM     18  C12 UNL     1       3.440   0.576  -2.730  1.00  0.00     0.045 A   
ATOM     19  C9  UNL     1       4.363   0.405  -0.065  1.00  0.00     0.037 A   
ATOM     20  C11 UNL     1       4.446   1.389  -2.253  1.00  0.00     0.109 A   
ATOM     21  C10 UNL     1       4.893   1.309  -0.957  1.00  0.00     0.108 A   
ATOM     22  O1  UNL     1       5.096   2.343  -2.967  1.00  0.00    -0.316 OA  
ATOM     23  O2  UNL     1       5.882   2.203  -0.694  1.00  0.00    -0.316 OA  
ATOM     24  C13 UNL     1       6.034   2.835  -1.982  1.00  0.00     0.337 C   
ENDBRANCH  15  16
ENDBRANCH  12  15
ENDBRANCH   7  12
ENDBRANCH   1   7
BRANCH   3  25
ATOM     25  C16 UNL     1      -1.512  -2.951   2.582  1.00  0.00     0.178 C   
BRANCH  25  26
ATOM     26  C17 UNL     1      -1.955  -1.967   3.612  1.00  0.00     0.032 A   
ATOM     27  S1  UNL     1      -0.962  -1.599   4.968  1.00  0.00    -0.079 S   
ATOM     28  C19 UNL     1      -3.119  -1.228   3.694  1.00  0.00     0.056 A   
ATOM     29  C18 UNL     1      -2.143  -0.482   5.515  1.00  0.00     0.157 A   
ATOM     30  N3  UNL     1      -3.210  -0.360   4.759  1.00  0.00    -0.253 NA  
BRANCH  28  31
ATOM     31  C20 UNL     1      -4.267  -1.318   2.644  1.00  0.00     0.039 C   
ATOM     32  C21 UNL     1      -5.692  -1.226   3.126  1.00  0.00     0.011 C   
ATOM     33  C22 UNL     1      -5.153  -2.535   2.625  1.00  0.00     0.011 C   
ENDBRANCH  28  31
ENDBRANCH  25  26
ENDBRANCH   3  25
TORSDOF 9
