REMARK SMILES CC(C)(C)[C@H]([NH2+]Cc1ccc2c(c1)OCO2)c1cn(CCc2ccc(O)cc2O)nn1
REMARK SMILES IDX 17 1 18 2 19 3 30 4 31 5 5 7 2 8 1 9 3 10 4 11 6 12 7 15
REMARK SMILES IDX 8 16 9 17 13 18 10 19 12 20 11 21 14 22 16 23 15 24 20 25
REMARK SMILES IDX 21 26 22 27 23 28 28 29 24 30 27 31 25 32 29 33 26 35
REMARK H PARENT 18 6 6 13 6 14 29 34 26 36
ROOT
ATOM     1   C14 UNL     1      -1.457  -1.756   0.842  1.00  0.00     0.127 A   
ATOM     2   C15 UNL     1      -1.475  -0.630   1.634  1.00  0.00     0.045 A   
ATOM     3   N2  UNL     1      -0.668  -0.957   2.687  1.00  0.00    -0.212 N   
ATOM     4   N3  UNL     1      -0.180  -2.204   2.554  1.00  0.00    -0.076 NA  
ATOM     5   N4  UNL     1      -0.655  -2.704   1.425  1.00  0.00    -0.132 NA  
ATOM     6   H20 UNL     1      -1.940   0.342   1.541  1.00  0.00     0.083 HD  
ENDROOT
BRANCH   1   7
ATOM     7   C5  UNL     1      -2.058  -2.025  -0.503  1.00  0.00     0.120 C   
BRANCH   7   8
ATOM     8   C2  UNL     1      -3.448  -2.751  -0.456  1.00  0.00     0.010 C   
ATOM     9   C1  UNL     1      -4.054  -2.838  -1.877  1.00  0.00     0.017 C   
ATOM     10  C3  UNL     1      -4.443  -1.941   0.406  1.00  0.00     0.017 C   
ATOM     11  C4  UNL     1      -3.358  -4.178   0.121  1.00  0.00     0.017 C   
ENDBRANCH   7   8
BRANCH   7  12
ATOM     12  N1  UNL     1      -1.067  -2.837  -1.314  1.00  0.00     0.250 N   
ATOM     13  H11 UNL     1      -1.518  -3.307  -2.101  1.00  0.00     0.199 HD  
ATOM     14  H12 UNL     1      -0.721  -3.572  -0.680  1.00  0.00     0.199 HD  
BRANCH  12  15
ATOM     15  C6  UNL     1       0.128  -2.094  -1.817  1.00  0.00     0.164 C   
BRANCH  15  16
ATOM     16  C7  UNL     1      -0.212  -1.119  -2.909  1.00  0.00    -0.002 A   
ATOM     17  C8  UNL     1      -0.138   0.274  -2.669  1.00  0.00     0.012 A   
ATOM     18  C12 UNL     1      -0.626  -1.580  -4.171  1.00  0.00     0.045 A   
ATOM     19  C9  UNL     1      -0.474   1.197  -3.665  1.00  0.00     0.037 A   
ATOM     20  C11 UNL     1      -0.955  -0.643  -5.129  1.00  0.00     0.109 A   
ATOM     21  C10 UNL     1      -0.882   0.706  -4.884  1.00  0.00     0.108 A   
ATOM     22  O1  UNL     1      -1.379  -0.920  -6.390  1.00  0.00    -0.316 OA  
ATOM     23  O2  UNL     1      -1.248   1.448  -5.961  1.00  0.00    -0.316 OA  
ATOM     24  C13 UNL     1      -1.537   0.414  -6.925  1.00  0.00     0.337 C   
ENDBRANCH  15  16
ENDBRANCH  12  15
ENDBRANCH   7  12
ENDBRANCH   1   7
BRANCH   3  25
ATOM     25  C16 UNL     1      -0.273  -0.118   3.800  1.00  0.00     0.139 C   
BRANCH  25  26
ATOM     26  C17 UNL     1       1.161   0.400   3.673  1.00  0.00     0.059 C   
BRANCH  26  27
ATOM     27  C18 UNL     1       1.411   1.188   2.406  1.00  0.00    -0.016 A   
ATOM     28  C19 UNL     1       2.222   0.644   1.397  1.00  0.00     0.009 A   
ATOM     29  C23 UNL     1       0.842   2.451   2.200  1.00  0.00     0.077 A   
ATOM     30  C20 UNL     1       2.441   1.346   0.213  1.00  0.00     0.033 A   
ATOM     31  C22 UNL     1       1.058   3.162   1.020  1.00  0.00     0.066 A   
ATOM     32  C21 UNL     1       1.856   2.594   0.033  1.00  0.00     0.074 A   
BRANCH  29  33
ATOM     33  O4  UNL     1       0.047   2.973   3.181  1.00  0.00    -0.361 OA  
ATOM     34  H29 UNL     1      -0.063   3.928   3.026  1.00  0.00     0.218 HD  
ENDBRANCH  29  33
BRANCH  32  35
ATOM     35  O3  UNL     1       2.079   3.228  -1.153  1.00  0.00    -0.361 OA  
ATOM     36  H27 UNL     1       1.850   4.169  -1.060  1.00  0.00     0.218 HD  
ENDBRANCH  32  35
ENDBRANCH  26  27
ENDBRANCH  25  26
ENDBRANCH   3  25
TORSDOF 10
