REMARK SMILES c1cc(CCn2cc([C@@H]([NH2+]Cc3ccc4c(c3)OCO4)C3CCCC3)nn2)ncn1
REMARK SMILES IDX 6 1 7 2 8 3 26 4 27 5 5 7 4 8 3 9 1 10 2 11 30 12 29 13
REMARK SMILES IDX 28 14 9 15 10 16 11 19 12 20 13 21 17 22 14 23 16 24 15 25
REMARK SMILES IDX 18 26 20 27 19 28 21 29 22 30 25 31 23 32 24 33
REMARK H PARENT 7 6 10 17 10 18
ROOT
ATOM     1   N1  UNL     1       0.864   1.054   2.127  1.00  0.00    -0.212 N   
ATOM     2   C6  UNL     1       0.449   0.062   1.285  1.00  0.00     0.045 A   
ATOM     3   C7  UNL     1       1.535  -0.156   0.469  1.00  0.00     0.127 A   
ATOM     4   N3  UNL     1       2.556   0.679   0.843  1.00  0.00    -0.132 NA  
ATOM     5   N4  UNL     1       2.134   1.414   1.859  1.00  0.00    -0.076 NA  
ATOM     6   H7  UNL     1      -0.550  -0.350   1.326  1.00  0.00     0.083 HD  
ENDROOT
BRANCH   1   7
ATOM     7   C5  UNL     1       0.116   1.705   3.182  1.00  0.00     0.140 C   
BRANCH   7   8
ATOM     8   C4  UNL     1      -0.136   3.189   2.914  1.00  0.00     0.077 C   
BRANCH   8   9
ATOM     9   C3  UNL     1      -0.982   3.470   1.694  1.00  0.00     0.045 A   
ATOM     10  C1  UNL     1      -1.745   4.912   0.008  1.00  0.00     0.115 A   
ATOM     11  C2  UNL     1      -0.918   4.714   1.091  1.00  0.00     0.044 A   
ATOM     12  N6  UNL     1      -2.588   3.976  -0.460  1.00  0.00    -0.245 NA  
ATOM     13  C22 UNL     1      -2.604   2.819   0.212  1.00  0.00     0.221 A   
ATOM     14  N5  UNL     1      -1.825   2.506   1.264  1.00  0.00    -0.241 NA  
ENDBRANCH   8   9
ENDBRANCH   7   8
ENDBRANCH   1   7
BRANCH   3  15
ATOM     15  C8  UNL     1       1.704  -1.052  -0.713  1.00  0.00     0.117 C   
BRANCH  15  16
ATOM     16  N2  UNL     1       2.515  -0.362  -1.784  1.00  0.00     0.249 N   
ATOM     17  H9  UNL     1       2.787  -1.021  -2.516  1.00  0.00     0.199 HD  
ATOM     18  H10 UNL     1       3.376  -0.033  -1.327  1.00  0.00     0.199 HD  
BRANCH  16  19
ATOM     19  C9  UNL     1       1.887   0.838  -2.421  1.00  0.00     0.164 C   
BRANCH  19  20
ATOM     20  C10 UNL     1       0.606   0.524  -3.140  1.00  0.00    -0.002 A   
ATOM     21  C11 UNL     1       0.620  -0.170  -4.373  1.00  0.00     0.012 A   
ATOM     22  C15 UNL     1      -0.625   0.888  -2.565  1.00  0.00     0.045 A   
ATOM     23  C12 UNL     1      -0.575  -0.503  -5.022  1.00  0.00     0.037 A   
ATOM     24  C14 UNL     1      -1.783   0.539  -3.226  1.00  0.00     0.109 A   
ATOM     25  C13 UNL     1      -1.759  -0.136  -4.421  1.00  0.00     0.108 A   
ATOM     26  O1  UNL     1      -3.047   0.795  -2.798  1.00  0.00    -0.316 OA  
ATOM     27  O2  UNL     1      -3.005  -0.381  -4.902  1.00  0.00    -0.316 OA  
ATOM     28  C16 UNL     1      -3.820   0.254  -3.893  1.00  0.00     0.337 C   
ENDBRANCH  19  20
ENDBRANCH  16  19
ENDBRANCH  15  16
BRANCH  15  29
ATOM     29  C17 UNL     1       2.347  -2.397  -0.318  1.00  0.00     0.043 C   
ATOM     30  C18 UNL     1       3.832  -2.371   0.052  1.00  0.00     0.010 C   
ATOM     31  C21 UNL     1       2.302  -3.472  -1.409  1.00  0.00     0.010 C   
ATOM     32  C19 UNL     1       4.204  -3.848   0.086  1.00  0.00     0.001 C   
ATOM     33  C20 UNL     1       3.337  -4.514  -0.982  1.00  0.00     0.001 C   
ENDBRANCH  15  29
ENDBRANCH   3  15
TORSDOF 8
