REMARK SMILES CC(C)[C@H]([NH2+]Cc1ccc2c(c1)OCO2)c1cn(-c2ccccc2CCO)nn1
REMARK SMILES IDX 19 1 20 2 21 3 22 4 23 5 24 6 18 7 16 8 17 9 29 10 28 11
REMARK SMILES IDX 4 12 2 13 1 14 3 15 5 16 6 19 7 20 8 21 12 22 9 23 11 24
REMARK SMILES IDX 10 25 13 26 15 27 14 28 25 29 26 30 27 31
REMARK H PARENT 5 17 5 18 27 32
ROOT
ATOM     1   C15 UNL     1       2.589  -1.395   3.575  1.00  0.00     0.061 A   
ATOM     2   C16 UNL     1       3.850  -1.557   4.183  1.00  0.00     0.026 A   
ATOM     3   C17 UNL     1       4.116  -2.663   4.986  1.00  0.00     0.002 A   
ATOM     4   C18 UNL     1       3.135  -3.626   5.182  1.00  0.00     0.000 A   
ATOM     5   C19 UNL     1       1.894  -3.496   4.559  1.00  0.00     0.006 A   
ATOM     6   C20 UNL     1       1.595  -2.397   3.725  1.00  0.00    -0.022 A   
ENDROOT
BRANCH   1   7
ATOM     7   N2  UNL     1       2.409  -0.226   2.791  1.00  0.00    -0.180 N   
ATOM     8   C13 UNL     1       1.590   1.192   1.350  1.00  0.00     0.127 A   
ATOM     9   C14 UNL     1       1.250   0.424   2.439  1.00  0.00     0.135 A   
ATOM     10  N4  UNL     1       2.946   1.161   1.203  1.00  0.00    -0.131 NA  
ATOM     11  N3  UNL     1       3.441   0.365   2.139  1.00  0.00    -0.071 NA  
BRANCH   8  12
ATOM     12  C4  UNL     1       0.739   1.843   0.313  1.00  0.00     0.117 C   
BRANCH  12  13
ATOM     13  C2  UNL     1      -0.395   2.772   0.816  1.00  0.00     0.037 C   
ATOM     14  C1  UNL     1      -1.556   2.081   1.537  1.00  0.00     0.014 C   
ATOM     15  C3  UNL     1       0.153   3.912   1.681  1.00  0.00     0.014 C   
ENDBRANCH  12  13
BRANCH  12  16
ATOM     16  N1  UNL     1       0.155   0.792  -0.599  1.00  0.00     0.249 N   
ATOM     17  H9  UNL     1      -0.179  -0.012  -0.028  1.00  0.00     0.199 HD  
ATOM     18  H10 UNL     1      -0.668   1.150  -1.091  1.00  0.00     0.199 HD  
BRANCH  16  19
ATOM     19  C5  UNL     1       1.107   0.238  -1.607  1.00  0.00     0.164 C   
BRANCH  19  20
ATOM     20  C6  UNL     1       0.378  -0.636  -2.591  1.00  0.00    -0.002 A   
ATOM     21  C7  UNL     1      -0.259  -0.065  -3.720  1.00  0.00     0.012 A   
ATOM     22  C11 UNL     1       0.269  -2.018  -2.362  1.00  0.00     0.045 A   
ATOM     23  C8  UNL     1      -0.992  -0.858  -4.610  1.00  0.00     0.037 A   
ATOM     24  C10 UNL     1      -0.469  -2.770  -3.254  1.00  0.00     0.109 A   
ATOM     25  C9  UNL     1      -1.081  -2.207  -4.345  1.00  0.00     0.108 A   
ATOM     26  O1  UNL     1      -0.687  -4.109  -3.167  1.00  0.00    -0.316 OA  
ATOM     27  O2  UNL     1      -1.756  -3.121  -5.091  1.00  0.00    -0.316 OA  
ATOM     28  C12 UNL     1      -1.493  -4.331  -4.347  1.00  0.00     0.337 C   
ENDBRANCH  19  20
ENDBRANCH  16  19
ENDBRANCH  12  16
ENDBRANCH   8  12
ENDBRANCH   1   7
BRANCH   6  29
ATOM     29  C21 UNL     1       0.255  -2.448   3.008  1.00  0.00     0.065 C   
BRANCH  29  30
ATOM     30  C22 UNL     1       0.352  -2.477   1.473  1.00  0.00     0.161 C   
BRANCH  30  31
ATOM     31  O3  UNL     1      -0.542  -1.511   0.884  1.00  0.00    -0.396 OA  
ATOM     32  H27 UNL     1      -1.434  -1.912   0.990  1.00  0.00     0.210 HD  
ENDBRANCH  30  31
ENDBRANCH  29  30
ENDBRANCH   6  29
TORSDOF 9
