REMARK SMILES c1ccc2c(CCn3cc([C@@H]([NH2+]Cc4ccc5c(c4)OCO5)C4CCCCC4)nn3)n[nH]c2c1
REMARK SMILES IDX 8 1 9 2 10 3 29 4 30 5 7 7 6 8 5 9 1 10 2 11 34 12 3 13
REMARK SMILES IDX 33 14 4 15 32 16 31 17 11 19 12 20 13 23 14 24 15 25 19 26
REMARK SMILES IDX 16 27 18 28 17 29 20 30 22 31 21 32 23 33 24 34 28 35 25 36
REMARK SMILES IDX 27 37 26 38
REMARK H PARENT 9 6 32 18 12 21 12 22
ROOT
ATOM     1   N1  UNL     1      -2.168  -0.086  -2.152  1.00  0.00    -0.212 N   
ATOM     2   C8  UNL     1      -1.521  -0.160  -0.954  1.00  0.00     0.045 A   
ATOM     3   C9  UNL     1      -1.393   1.153  -0.567  1.00  0.00     0.127 A   
ATOM     4   N3  UNL     1      -1.997   1.960  -1.499  1.00  0.00    -0.132 NA  
ATOM     5   N4  UNL     1      -2.470   1.189  -2.463  1.00  0.00    -0.076 NA  
ATOM     6   H8  UNL     1      -1.185  -1.099  -0.532  1.00  0.00     0.083 HD  
ENDROOT
BRANCH   1   7
ATOM     7   C7  UNL     1      -2.529  -1.165  -3.048  1.00  0.00     0.140 C   
BRANCH   7   8
ATOM     8   C6  UNL     1      -1.441  -1.462  -4.075  1.00  0.00     0.080 C   
BRANCH   8   9
ATOM     9   C5  UNL     1      -0.320  -2.270  -3.501  1.00  0.00     0.069 A   
ATOM     10  C1  UNL     1       0.820  -6.280  -3.205  1.00  0.00     0.002 A   
ATOM     11  C2  UNL     1      -0.378  -6.067  -3.888  1.00  0.00     0.001 A   
ATOM     12  C26 UNL     1       1.554  -5.210  -2.681  1.00  0.00     0.026 A   
ATOM     13  C3  UNL     1      -0.881  -4.772  -4.070  1.00  0.00     0.012 A   
ATOM     14  C25 UNL     1       1.030  -3.926  -2.869  1.00  0.00     0.057 A   
ATOM     15  C4  UNL     1      -0.160  -3.683  -3.545  1.00  0.00     0.020 A   
ATOM     16  N6  UNL     1       1.490  -2.695  -2.493  1.00  0.00    -0.238 N   
ATOM     17  N5  UNL     1       0.680  -1.669  -2.835  1.00  0.00    -0.188 NA  
ATOM     18  H30 UNL     1       2.351  -2.493  -1.998  1.00  0.00     0.176 HD  
ENDBRANCH   8   9
ENDBRANCH   7   8
ENDBRANCH   1   7
BRANCH   3  19
ATOM     19  C10 UNL     1      -0.683   1.771   0.592  1.00  0.00     0.117 C   
BRANCH  19  20
ATOM     20  N2  UNL     1      -0.276   3.183   0.241  1.00  0.00     0.249 N   
ATOM     21  H10 UNL     1      -1.064   3.572  -0.299  1.00  0.00     0.199 HD  
ATOM     22  H11 UNL     1      -0.168   3.764   1.075  1.00  0.00     0.199 HD  
BRANCH  20  23
ATOM     23  C11 UNL     1       0.945   3.302  -0.612  1.00  0.00     0.164 C   
BRANCH  23  24
ATOM     24  C12 UNL     1       2.206   3.084   0.181  1.00  0.00    -0.002 A   
ATOM     25  C13 UNL     1       2.641   4.056   1.117  1.00  0.00     0.012 A   
ATOM     26  C17 UNL     1       2.940   1.894   0.029  1.00  0.00     0.045 A   
ATOM     27  C14 UNL     1       3.779   3.840   1.903  1.00  0.00     0.037 A   
ATOM     28  C16 UNL     1       4.058   1.714   0.818  1.00  0.00     0.109 A   
ATOM     29  C15 UNL     1       4.462   2.657   1.731  1.00  0.00     0.108 A   
ATOM     30  O1  UNL     1       4.863   0.622   0.811  1.00  0.00    -0.316 OA  
ATOM     31  O2  UNL     1       5.571   2.276   2.415  1.00  0.00    -0.316 OA  
ATOM     32  C18 UNL     1       5.856   1.006   1.790  1.00  0.00     0.337 C   
ENDBRANCH  23  24
ENDBRANCH  20  23
ENDBRANCH  19  20
BRANCH  19  33
ATOM     33  C19 UNL     1      -1.532   1.750   1.889  1.00  0.00     0.043 C   
ATOM     34  C20 UNL     1      -2.772   2.664   1.848  1.00  0.00     0.010 C   
ATOM     35  C24 UNL     1      -0.678   2.069   3.132  1.00  0.00     0.010 C   
ATOM     36  C21 UNL     1      -3.591   2.552   3.135  1.00  0.00     0.001 C   
ATOM     37  C23 UNL     1      -1.496   1.948   4.417  1.00  0.00     0.001 C   
ATOM     38  C22 UNL     1      -2.744   2.826   4.376  1.00  0.00     0.000 C   
ENDBRANCH  19  33
ENDBRANCH   3  19
TORSDOF 8
