REMARK SMILES CCn1cncc1CCn1cc([C@@H]([NH2+]Cc2ccc3c(c2)OCO3)C(C)C)nn1
REMARK SMILES IDX 10 1 11 2 12 3 28 4 29 5 9 7 8 8 7 9 3 10 4 11 5 12 6 13
REMARK SMILES IDX 2 14 1 15 13 16 14 17 15 20 16 21 17 22 21 23 18 24 20 25
REMARK SMILES IDX 19 26 22 27 24 28 23 29 25 30 26 31 27 32
REMARK H PARENT 11 6 14 18 14 19
ROOT
ATOM     1   N3  UNL     1       1.794  -0.778   3.044  1.00  0.00    -0.212 N   
ATOM     2   C8  UNL     1       2.399  -0.943   1.824  1.00  0.00     0.045 A   
ATOM     3   C9  UNL     1       1.522  -1.751   1.130  1.00  0.00     0.127 A   
ATOM     4   N5  UNL     1       0.563  -2.204   2.003  1.00  0.00    -0.132 NA  
ATOM     5   N6  UNL     1       0.749  -1.614   3.177  1.00  0.00    -0.076 NA  
ATOM     6   H12 UNL     1       3.262  -0.361   1.536  1.00  0.00     0.083 HD  
ENDROOT
BRANCH   1   7
ATOM     7   C7  UNL     1       1.947   0.365   3.927  1.00  0.00     0.140 C   
BRANCH   7   8
ATOM     8   C6  UNL     1       0.876   1.461   3.705  1.00  0.00     0.074 C   
BRANCH   8   9
ATOM     9   C5  UNL     1       0.570   1.701   2.253  1.00  0.00     0.031 A   
ATOM     10  N1  UNL     1       1.205   2.564   1.395  1.00  0.00    -0.294 N   
ATOM     11  C3  UNL     1       0.749   2.288   0.131  1.00  0.00     0.188 A   
ATOM     12  N2  UNL     1      -0.120   1.299   0.129  1.00  0.00    -0.247 NA  
ATOM     13  C4  UNL     1      -0.355   1.054   1.458  1.00  0.00     0.131 A   
BRANCH  10  14
ATOM     14  C2  UNL     1       2.169   3.601   1.709  1.00  0.00     0.108 C   
ATOM     15  C1  UNL     1       3.607   3.142   1.501  1.00  0.00     0.025 C   
ENDBRANCH  10  14
ENDBRANCH   8   9
ENDBRANCH   7   8
ENDBRANCH   1   7
BRANCH   3  16
ATOM     16  C10 UNL     1       1.399  -2.071  -0.330  1.00  0.00     0.117 C   
BRANCH  16  17
ATOM     17  N4  UNL     1       0.266  -1.304  -0.970  1.00  0.00     0.249 N   
ATOM     18  H14 UNL     1       0.448  -1.118  -1.959  1.00  0.00     0.199 HD  
ATOM     19  H15 UNL     1       0.191  -0.356  -0.537  1.00  0.00     0.199 HD  
BRANCH  17  20
ATOM     20  C11 UNL     1      -1.076  -1.938  -0.855  1.00  0.00     0.164 C   
BRANCH  20  21
ATOM     21  C12 UNL     1      -2.145  -1.114  -1.520  1.00  0.00    -0.002 A   
ATOM     22  C13 UNL     1      -2.107  -0.853  -2.914  1.00  0.00     0.012 A   
ATOM     23  C17 UNL     1      -3.199  -0.591  -0.750  1.00  0.00     0.045 A   
ATOM     24  C14 UNL     1      -3.082  -0.053  -3.522  1.00  0.00     0.037 A   
ATOM     25  C16 UNL     1      -4.149   0.182  -1.382  1.00  0.00     0.109 A   
ATOM     26  C15 UNL     1      -4.085   0.456  -2.728  1.00  0.00     0.108 A   
ATOM     27  O1  UNL     1      -5.231   0.746  -0.785  1.00  0.00    -0.316 OA  
ATOM     28  O2  UNL     1      -5.105   1.249  -3.143  1.00  0.00    -0.316 OA  
ATOM     29  C18 UNL     1      -5.836   1.424  -1.909  1.00  0.00     0.337 C   
ENDBRANCH  20  21
ENDBRANCH  17  20
ENDBRANCH  16  17
BRANCH  16  30
ATOM     30  C19 UNL     1       2.707  -1.870  -1.145  1.00  0.00     0.037 C   
ATOM     31  C20 UNL     1       2.693  -2.735  -2.414  1.00  0.00     0.014 C   
ATOM     32  C21 UNL     1       3.007  -0.417  -1.532  1.00  0.00     0.014 C   
ENDBRANCH  16  30
ENDBRANCH   3  16
TORSDOF 9
