REMARK SMILES Cc1cc(F)cc([C@H](CO)n2cc([C@@H]([NH2+]Cc3ccc4c(c3)OCO4)C(C)C)nn2)c1
REMARK SMILES IDX 11 1 12 2 13 3 29 4 30 5 8 7 7 8 2 9 3 10 31 11 4 12 6 13
REMARK SMILES IDX 1 14 5 15 9 16 10 17 14 19 15 20 16 23 17 24 18 25 22 26
REMARK SMILES IDX 19 27 21 28 20 29 23 30 25 31 24 32 26 33 27 34 28 35
REMARK H PARENT 12 6 10 18 15 21 15 22
ROOT
ATOM     1   N1  UNL     1      -0.795   0.087   0.761  1.00  0.00    -0.202 N   
ATOM     2   C9  UNL     1      -0.429   0.417  -0.517  1.00  0.00     0.046 A   
ATOM     3   C10 UNL     1      -0.857  -0.648  -1.275  1.00  0.00     0.127 A   
ATOM     4   N3  UNL     1      -1.428  -1.587  -0.452  1.00  0.00    -0.132 NA  
ATOM     5   N4  UNL     1      -1.384  -1.129   0.788  1.00  0.00    -0.075 NA  
ATOM     6   H10 UNL     1       0.090   1.337  -0.747  1.00  0.00     0.083 HD  
ENDROOT
BRANCH   1   7
ATOM     7   C7  UNL     1      -0.615   0.843   2.002  1.00  0.00     0.155 C   
BRANCH   7   8
ATOM     8   C6  UNL     1      -1.066   2.290   1.826  1.00  0.00    -0.020 A   
ATOM     9   C2  UNL     1      -0.632   4.690   1.578  1.00  0.00    -0.048 A   
ATOM     10  C3  UNL     1      -2.004   4.925   1.458  1.00  0.00     0.042 A   
ATOM     11  C23 UNL     1      -0.172   3.372   1.746  1.00  0.00     0.009 A   
ATOM     12  C4  UNL     1      -2.894   3.863   1.532  1.00  0.00     0.123 A   
ATOM     13  C5  UNL     1      -2.442   2.560   1.717  1.00  0.00     0.045 A   
ATOM     14  C1  UNL     1       0.344   5.826   1.469  1.00  0.00     0.044 C   
ATOM     15  F1  UNL     1      -4.208   4.090   1.416  1.00  0.00    -0.207 F   
ENDBRANCH   7   8
BRANCH   7  16
ATOM     16  C8  UNL     1       0.786   0.589   2.591  1.00  0.00     0.185 C   
BRANCH  16  17
ATOM     17  O1  UNL     1       1.841   0.962   1.704  1.00  0.00    -0.394 OA  
ATOM     18  H9  UNL     1       2.662   0.579   2.068  1.00  0.00     0.210 HD  
ENDBRANCH  16  17
ENDBRANCH   7  16
ENDBRANCH   1   7
BRANCH   3  19
ATOM     19  C11 UNL     1      -0.724  -0.943  -2.733  1.00  0.00     0.117 C   
BRANCH  19  20
ATOM     20  N2  UNL     1      -0.451  -2.426  -2.915  1.00  0.00     0.249 N   
ATOM     21  H12 UNL     1      -0.834  -2.884  -2.072  1.00  0.00     0.199 HD  
ATOM     22  H13 UNL     1      -0.987  -2.798  -3.704  1.00  0.00     0.199 HD  
BRANCH  20  23
ATOM     23  C12 UNL     1       0.976  -2.829  -3.067  1.00  0.00     0.164 C   
BRANCH  23  24
ATOM     24  C13 UNL     1       1.876  -2.388  -1.947  1.00  0.00    -0.002 A   
ATOM     25  C14 UNL     1       1.747  -2.947  -0.652  1.00  0.00     0.012 A   
ATOM     26  C18 UNL     1       2.836  -1.385  -2.171  1.00  0.00     0.045 A   
ATOM     27  C15 UNL     1       2.544  -2.500   0.408  1.00  0.00     0.037 A   
ATOM     28  C17 UNL     1       3.606  -0.970  -1.105  1.00  0.00     0.109 A   
ATOM     29  C16 UNL     1       3.461  -1.506   0.150  1.00  0.00     0.108 A   
ATOM     30  O2  UNL     1       4.562  -0.006  -1.154  1.00  0.00    -0.316 OA  
ATOM     31  O3  UNL     1       4.294  -0.930   1.058  1.00  0.00    -0.316 OA  
ATOM     32  C19 UNL     1       5.032  -0.019   0.211  1.00  0.00     0.337 C   
ENDBRANCH  23  24
ENDBRANCH  20  23
ENDBRANCH  19  20
BRANCH  19  33
ATOM     33  C20 UNL     1      -1.973  -0.561  -3.570  1.00  0.00     0.037 C   
ATOM     34  C21 UNL     1      -3.268  -1.251  -3.125  1.00  0.00     0.014 C   
ATOM     35  C22 UNL     1      -2.182   0.957  -3.602  1.00  0.00     0.014 C   
ENDBRANCH  19  33
ENDBRANCH   3  19
TORSDOF 9
