REMARK SMILES Cc1cc(F)cc([C@@H](CO)n2cc([C@@H]([NH2+]Cc3ccc4c(c3)OCO4)C(C)C)nn2)c1
REMARK SMILES IDX 11 1 12 2 13 3 29 4 30 5 8 7 7 8 2 9 3 10 31 11 4 12 6 13
REMARK SMILES IDX 1 14 5 15 9 16 10 17 14 19 15 20 16 23 17 24 18 25 22 26
REMARK SMILES IDX 19 27 21 28 20 29 23 30 25 31 24 32 26 33 27 34 28 35
REMARK H PARENT 12 6 10 18 15 21 15 22
ROOT
ATOM     1   N1  UNL     1       1.677   0.450   0.761  1.00  0.00    -0.202 N   
ATOM     2   C9  UNL     1       0.701   1.391   0.554  1.00  0.00     0.046 A   
ATOM     3   C10 UNL     1      -0.346   0.676   0.016  1.00  0.00     0.127 A   
ATOM     4   N3  UNL     1       0.017  -0.642  -0.091  1.00  0.00    -0.132 NA  
ATOM     5   N4  UNL     1       1.257  -0.766   0.349  1.00  0.00    -0.075 NA  
ATOM     6   H10 UNL     1       0.843   2.434   0.801  1.00  0.00     0.083 HD  
ENDROOT
BRANCH   1   7
ATOM     7   C7  UNL     1       3.015   0.656   1.323  1.00  0.00     0.155 C   
BRANCH   7   8
ATOM     8   C6  UNL     1       3.123   0.001   2.692  1.00  0.00    -0.020 A   
ATOM     9   C2  UNL     1       3.130   0.214   5.134  1.00  0.00    -0.048 A   
ATOM     10  C3  UNL     1       3.307  -1.168   5.248  1.00  0.00     0.042 A   
ATOM     11  C23 UNL     1       3.050   0.791   3.856  1.00  0.00     0.009 A   
ATOM     12  C4  UNL     1       3.375  -1.952   4.103  1.00  0.00     0.123 A   
ATOM     13  C5  UNL     1       3.282  -1.386   2.836  1.00  0.00     0.045 A   
ATOM     14  C1  UNL     1       3.087   1.072   6.366  1.00  0.00     0.044 C   
ATOM     15  F1  UNL     1       3.533  -3.277   4.218  1.00  0.00    -0.207 F   
ENDBRANCH   7   8
BRANCH   7  16
ATOM     16  C8  UNL     1       4.115   0.229   0.335  1.00  0.00     0.185 C   
BRANCH  16  17
ATOM     17  O1  UNL     1       4.164   1.139  -0.768  1.00  0.00    -0.394 OA  
ATOM     18  H9  UNL     1       4.902   0.851  -1.339  1.00  0.00     0.210 HD  
ENDBRANCH  16  17
ENDBRANCH   7  16
ENDBRANCH   1   7
BRANCH   3  19
ATOM     19  C11 UNL     1      -1.700   1.108  -0.452  1.00  0.00     0.117 C   
BRANCH  19  20
ATOM     20  N2  UNL     1      -2.277   0.093  -1.401  1.00  0.00     0.249 N   
ATOM     21  H12 UNL     1      -2.095  -0.834  -0.988  1.00  0.00     0.199 HD  
ATOM     22  H13 UNL     1      -3.294   0.175  -1.488  1.00  0.00     0.199 HD  
BRANCH  20  23
ATOM     23  C12 UNL     1      -1.677   0.083  -2.766  1.00  0.00     0.164 C   
BRANCH  23  24
ATOM     24  C13 UNL     1      -2.269  -1.030  -3.584  1.00  0.00    -0.002 A   
ATOM     25  C14 UNL     1      -1.732  -2.337  -3.494  1.00  0.00     0.012 A   
ATOM     26  C18 UNL     1      -3.393  -0.796  -4.394  1.00  0.00     0.045 A   
ATOM     27  C15 UNL     1      -2.299  -3.397  -4.210  1.00  0.00     0.037 A   
ATOM     28  C17 UNL     1      -3.930  -1.865  -5.083  1.00  0.00     0.109 A   
ATOM     29  C16 UNL     1      -3.399  -3.128  -4.995  1.00  0.00     0.108 A   
ATOM     30  O2  UNL     1      -5.014  -1.813  -5.901  1.00  0.00    -0.316 OA  
ATOM     31  O3  UNL     1      -4.078  -4.030  -5.750  1.00  0.00    -0.316 OA  
ATOM     32  C19 UNL     1      -5.103  -3.192  -6.327  1.00  0.00     0.337 C   
ENDBRANCH  23  24
ENDBRANCH  20  23
ENDBRANCH  19  20
BRANCH  19  33
ATOM     33  C20 UNL     1      -2.675   1.353   0.730  1.00  0.00     0.037 C   
ATOM     34  C21 UNL     1      -3.939   2.095   0.279  1.00  0.00     0.014 C   
ATOM     35  C22 UNL     1      -3.066   0.077   1.486  1.00  0.00     0.014 C   
ENDBRANCH  19  33
ENDBRANCH   3  19
TORSDOF 9
