REMARK SMILES CC(C)n1nccc1Cn1cc([C@@H]([NH2+]Cc2ccc3c(c2)OCO3)C(C)(C)C)nn1
REMARK SMILES IDX 10 1 11 2 12 3 29 4 30 5 9 7 8 8 4 9 5 10 6 11 7 12 2 13
REMARK SMILES IDX 1 14 3 15 13 16 14 17 15 20 16 21 17 22 21 23 18 24 20 25
REMARK SMILES IDX 19 26 22 27 24 28 23 29 25 30 26 31 27 32 28 33
REMARK H PARENT 11 6 14 18 14 19
ROOT
ATOM     1   N3  UNL     1      -2.462  -0.509   1.693  1.00  0.00    -0.206 N   
ATOM     2   C8  UNL     1      -2.329  -1.467   0.724  1.00  0.00     0.046 A   
ATOM     3   C9  UNL     1      -0.970  -1.546   0.517  1.00  0.00     0.127 A   
ATOM     4   N5  UNL     1      -0.337  -0.654   1.346  1.00  0.00    -0.132 NA  
ATOM     5   N6  UNL     1      -1.258  -0.030   2.062  1.00  0.00    -0.076 NA  
ATOM     6   H12 UNL     1      -3.183  -1.956   0.275  1.00  0.00     0.083 HD  
ENDROOT
BRANCH   1   7
ATOM     7   C7  UNL     1      -3.689   0.043   2.251  1.00  0.00     0.187 C   
BRANCH   7   8
ATOM     8   C6  UNL     1      -4.331   0.961   1.267  1.00  0.00     0.049 A   
ATOM     9   N1  UNL     1      -3.918   2.251   1.012  1.00  0.00    -0.225 N   
ATOM     10  N2  UNL     1      -4.598   2.816  -0.007  1.00  0.00    -0.190 NA  
ATOM     11  C4  UNL     1      -5.534   1.923  -0.320  1.00  0.00     0.133 A   
ATOM     12  C5  UNL     1      -5.415   0.748   0.436  1.00  0.00     0.044 A   
BRANCH   9  13
ATOM     13  C2  UNL     1      -2.873   3.031   1.676  1.00  0.00     0.092 C   
ATOM     14  C1  UNL     1      -3.439   4.308   2.297  1.00  0.00     0.030 C   
ATOM     15  C3  UNL     1      -1.717   3.341   0.722  1.00  0.00     0.030 C   
ENDBRANCH   9  13
ENDBRANCH   7   8
ENDBRANCH   1   7
BRANCH   3  16
ATOM     16  C10 UNL     1      -0.164  -2.330  -0.475  1.00  0.00     0.120 C   
BRANCH  16  17
ATOM     17  N4  UNL     1       0.969  -1.457  -0.965  1.00  0.00     0.250 N   
ATOM     18  H14 UNL     1       1.728  -1.997  -1.387  1.00  0.00     0.199 HD  
ATOM     19  H15 UNL     1       1.371  -1.001  -0.132  1.00  0.00     0.199 HD  
BRANCH  17  20
ATOM     20  C11 UNL     1       0.575  -0.373  -1.909  1.00  0.00     0.164 C   
BRANCH  20  21
ATOM     21  C12 UNL     1       1.762   0.486  -2.238  1.00  0.00    -0.002 A   
ATOM     22  C13 UNL     1       2.067   1.614  -1.439  1.00  0.00     0.012 A   
ATOM     23  C17 UNL     1       2.612   0.141  -3.303  1.00  0.00     0.045 A   
ATOM     24  C14 UNL     1       3.195   2.398  -1.703  1.00  0.00     0.037 A   
ATOM     25  C16 UNL     1       3.717   0.934  -3.535  1.00  0.00     0.109 A   
ATOM     26  C15 UNL     1       4.000   2.031  -2.759  1.00  0.00     0.108 A   
ATOM     27  O1  UNL     1       4.636   0.740  -4.516  1.00  0.00    -0.316 OA  
ATOM     28  O2  UNL     1       5.132   2.668  -3.156  1.00  0.00    -0.316 OA  
ATOM     29  C18 UNL     1       5.524   1.857  -4.286  1.00  0.00     0.337 C   
ENDBRANCH  20  21
ENDBRANCH  17  20
ENDBRANCH  16  17
BRANCH  16  30
ATOM     30  C19 UNL     1       0.391  -3.690   0.075  1.00  0.00     0.010 C   
ATOM     31  C20 UNL     1       1.422  -3.499   1.205  1.00  0.00     0.017 C   
ATOM     32  C21 UNL     1      -0.768  -4.560   0.615  1.00  0.00     0.017 C   
ATOM     33  C22 UNL     1       1.062  -4.495  -1.063  1.00  0.00     0.017 C   
ENDBRANCH  16  30
ENDBRANCH   3  16
TORSDOF 8
