REMARK SMILES CC(C)(C)[C@H]([NH2+]Cc1ccc2c(c1)OCO2)c1cn([C@H](CO)c2n[nH]c3c2CCC3)nn1
REMARK SMILES IDX 17 1 18 2 19 3 31 4 32 5 5 7 2 8 1 9 3 10 4 11 6 12 7 15
REMARK SMILES IDX 8 16 9 17 13 18 10 19 12 20 11 21 14 22 16 23 15 24 20 25
REMARK SMILES IDX 21 26 22 27 23 29 24 30 27 31 25 32 26 33 28 34 30 35 29 36
REMARK H PARENT 18 6 6 13 6 14 22 28 25 37
ROOT
ATOM     1   C14 UNL     1       1.282  -0.815   0.052  1.00  0.00     0.127 A   
ATOM     2   C15 UNL     1       0.281  -1.626  -0.429  1.00  0.00     0.046 A   
ATOM     3   N2  UNL     1      -0.499  -1.888   0.667  1.00  0.00    -0.201 N   
ATOM     4   N5  UNL     1      -0.026  -1.229   1.749  1.00  0.00    -0.075 NA  
ATOM     5   N6  UNL     1       1.064  -0.575   1.386  1.00  0.00    -0.132 NA  
ATOM     6   H20 UNL     1       0.058  -2.034  -1.405  1.00  0.00     0.083 HD  
ENDROOT
BRANCH   1   7
ATOM     7   C5  UNL     1       2.416  -0.128  -0.644  1.00  0.00     0.120 C   
BRANCH   7   8
ATOM     8   C2  UNL     1       3.787  -0.880  -0.539  1.00  0.00     0.010 C   
ATOM     9   C1  UNL     1       4.851  -0.177  -1.417  1.00  0.00     0.017 C   
ATOM     10  C3  UNL     1       3.646  -2.323  -1.076  1.00  0.00     0.017 C   
ATOM     11  C4  UNL     1       4.320  -0.951   0.906  1.00  0.00     0.017 C   
ENDBRANCH   7   8
BRANCH   7  12
ATOM     12  N1  UNL     1       2.533   1.269  -0.077  1.00  0.00     0.250 N   
ATOM     13  H11 UNL     1       3.448   1.692  -0.242  1.00  0.00     0.199 HD  
ATOM     14  H12 UNL     1       2.446   1.167   0.946  1.00  0.00     0.199 HD  
BRANCH  12  15
ATOM     15  C6  UNL     1       1.472   2.217  -0.518  1.00  0.00     0.164 C   
BRANCH  15  16
ATOM     16  C7  UNL     1       1.475   3.449   0.340  1.00  0.00    -0.002 A   
ATOM     17  C8  UNL     1       2.154   4.620  -0.072  1.00  0.00     0.012 A   
ATOM     18  C12 UNL     1       0.838   3.421   1.594  1.00  0.00     0.045 A   
ATOM     19  C9  UNL     1       2.189   5.753   0.748  1.00  0.00     0.037 A   
ATOM     20  C11 UNL     1       0.893   4.554   2.378  1.00  0.00     0.109 A   
ATOM     21  C10 UNL     1       1.548   5.689   1.968  1.00  0.00     0.108 A   
ATOM     22  O1  UNL     1       0.341   4.688   3.614  1.00  0.00    -0.316 OA  
ATOM     23  O2  UNL     1       1.487   6.683   2.893  1.00  0.00    -0.316 OA  
ATOM     24  C13 UNL     1       0.679   6.059   3.916  1.00  0.00     0.337 C   
ENDBRANCH  15  16
ENDBRANCH  12  15
ENDBRANCH   7  12
ENDBRANCH   1   7
BRANCH   3  25
ATOM     25  C16 UNL     1      -1.712  -2.691   0.775  1.00  0.00     0.176 C   
BRANCH  25  26
ATOM     26  C17 UNL     1      -1.515  -4.137   0.289  1.00  0.00     0.187 C   
BRANCH  26  27
ATOM     27  O3  UNL     1      -1.259  -4.239  -1.115  1.00  0.00    -0.394 OA  
ATOM     28  H24 UNL     1      -2.015  -3.785  -1.553  1.00  0.00     0.210 HD  
ENDBRANCH  26  27
ENDBRANCH  25  26
BRANCH  25  29
ATOM     29  C18 UNL     1      -2.852  -1.970   0.110  1.00  0.00     0.088 A   
ATOM     30  N3  UNL     1      -3.199  -2.208  -1.179  1.00  0.00    -0.187 NA  
ATOM     31  C20 UNL     1      -3.692  -0.998   0.667  1.00  0.00    -0.004 A   
ATOM     32  N4  UNL     1      -4.284  -1.414  -1.401  1.00  0.00    -0.242 N   
ATOM     33  C19 UNL     1      -4.576  -0.675  -0.315  1.00  0.00     0.030 A   
ATOM     34  C21 UNL     1      -3.955  -0.245   1.905  1.00  0.00     0.039 C   
ATOM     35  C23 UNL     1      -5.590   0.323   0.050  1.00  0.00     0.054 C   
ATOM     36  C22 UNL     1      -5.367   0.379   1.605  1.00  0.00     0.011 C   
ATOM     37  H25 UNL     1      -4.747  -1.448  -2.307  1.00  0.00     0.175 HD  
ENDBRANCH  25  29
ENDBRANCH   3  25
TORSDOF 9
