REMARK SMILES CC(C)(C)[C@H]([NH2+]Cc1ccc2c(c1)OCO2)c1cn([C@@H](CO)c2n[nH]c3c2CCC3)nn1
REMARK SMILES IDX 17 1 18 2 19 3 31 4 32 5 5 7 2 8 1 9 3 10 4 11 6 12 7 15
REMARK SMILES IDX 8 16 9 17 13 18 10 19 12 20 11 21 14 22 16 23 15 24 20 25
REMARK SMILES IDX 21 26 22 27 23 29 24 30 27 31 25 32 26 33 28 34 30 35 29 36
REMARK H PARENT 18 6 6 13 6 14 22 28 25 37
ROOT
ATOM     1   C14 UNL     1       1.128  -0.735   0.743  1.00  0.00     0.127 A   
ATOM     2   C15 UNL     1      -0.009  -0.004   0.995  1.00  0.00     0.046 A   
ATOM     3   N2  UNL     1       0.254   0.635   2.178  1.00  0.00    -0.201 N   
ATOM     4   N5  UNL     1       1.481   0.296   2.633  1.00  0.00    -0.075 NA  
ATOM     5   N6  UNL     1       2.023  -0.541   1.762  1.00  0.00    -0.132 NA  
ATOM     6   H20 UNL     1      -0.923   0.165   0.441  1.00  0.00     0.083 HD  
ENDROOT
BRANCH   1   7
ATOM     7   C5  UNL     1       1.523  -1.520  -0.467  1.00  0.00     0.120 C   
BRANCH   7   8
ATOM     8   C2  UNL     1       1.416  -3.075  -0.292  1.00  0.00     0.010 C   
ATOM     9   C1  UNL     1       1.686  -3.784  -1.640  1.00  0.00     0.017 C   
ATOM     10  C3  UNL     1       2.402  -3.638   0.751  1.00  0.00     0.017 C   
ATOM     11  C4  UNL     1      -0.019  -3.459   0.140  1.00  0.00     0.017 C   
ENDBRANCH   7   8
BRANCH   7  12
ATOM     12  N1  UNL     1       2.930  -1.124  -0.874  1.00  0.00     0.250 N   
ATOM     13  H11 UNL     1       3.523  -1.262  -0.044  1.00  0.00     0.199 HD  
ATOM     14  H12 UNL     1       3.282  -1.737  -1.611  1.00  0.00     0.199 HD  
BRANCH  12  15
ATOM     15  C6  UNL     1       3.119   0.297  -1.306  1.00  0.00     0.164 C   
BRANCH  15  16
ATOM     16  C7  UNL     1       2.319   0.658  -2.526  1.00  0.00    -0.002 A   
ATOM     17  C8  UNL     1       1.223   1.549  -2.419  1.00  0.00     0.012 A   
ATOM     18  C12 UNL     1       2.632   0.094  -3.775  1.00  0.00     0.045 A   
ATOM     19  C9  UNL     1       0.442   1.866  -3.536  1.00  0.00     0.037 A   
ATOM     20  C11 UNL     1       1.841   0.427  -4.855  1.00  0.00     0.109 A   
ATOM     21  C10 UNL     1       0.776   1.287  -4.739  1.00  0.00     0.108 A   
ATOM     22  O1  UNL     1       2.000  -0.037  -6.122  1.00  0.00    -0.316 OA  
ATOM     23  O2  UNL     1       0.132   1.474  -5.920  1.00  0.00    -0.316 OA  
ATOM     24  C13 UNL     1       0.930   0.658  -6.804  1.00  0.00     0.337 C   
ENDBRANCH  15  16
ENDBRANCH  12  15
ENDBRANCH   7  12
ENDBRANCH   1   7
BRANCH   3  25
ATOM     25  C16 UNL     1      -0.513   1.680   2.852  1.00  0.00     0.176 C   
BRANCH  25  26
ATOM     26  C17 UNL     1      -0.267   3.045   2.184  1.00  0.00     0.187 C   
BRANCH  26  27
ATOM     27  O3  UNL     1      -0.694   3.084   0.815  1.00  0.00    -0.394 OA  
ATOM     28  H24 UNL     1      -1.656   2.876   0.843  1.00  0.00     0.210 HD  
ENDBRANCH  26  27
ENDBRANCH  25  26
BRANCH  25  29
ATOM     29  C18 UNL     1      -1.966   1.302   2.938  1.00  0.00     0.088 A   
ATOM     30  N3  UNL     1      -2.858   1.683   1.990  1.00  0.00    -0.187 NA  
ATOM     31  C20 UNL     1      -2.603   0.555   3.934  1.00  0.00    -0.004 A   
ATOM     32  N4  UNL     1      -4.054   1.193   2.420  1.00  0.00    -0.242 N   
ATOM     33  C19 UNL     1      -3.912   0.506   3.569  1.00  0.00     0.030 A   
ATOM     34  C21 UNL     1      -2.366  -0.159   5.200  1.00  0.00     0.039 C   
ATOM     35  C23 UNL     1      -4.798  -0.226   4.484  1.00  0.00     0.054 C   
ATOM     36  C22 UNL     1      -3.728  -0.923   5.396  1.00  0.00     0.011 C   
ATOM     37  H25 UNL     1      -4.891   1.376   1.873  1.00  0.00     0.175 HD  
ENDBRANCH  25  29
ENDBRANCH   3  25
TORSDOF 9
