REMARK SMILES COc1cc(F)ccc1-n1cc([C@@H]([NH2+]Cc2ccc3c(c2)OCO3)C2CCCC2)nn1
REMARK SMILES IDX 10 1 11 2 12 3 30 4 31 5 9 6 3 7 4 8 5 9 8 10 7 11 6 12 2 13
REMARK SMILES IDX 1 14 13 15 14 16 15 19 16 20 17 21 21 22 18 23 20 24 19 25
REMARK SMILES IDX 22 26 24 27 23 28 25 29 26 30 29 31 27 32 28 33
REMARK H PARENT 14 17 14 18
ROOT
ATOM     1   N1  UNL     1      -0.964   0.023   2.224  1.00  0.00    -0.178 N   
ATOM     2   C8  UNL     1      -0.637   0.975   1.274  1.00  0.00     0.135 A   
ATOM     3   C9  UNL     1      -0.612   0.306   0.072  1.00  0.00     0.127 A   
ATOM     4   N3  UNL     1      -0.897  -1.009   0.287  1.00  0.00    -0.131 NA  
ATOM     5   N4  UNL     1      -1.095  -1.176   1.582  1.00  0.00    -0.071 NA  
ENDROOT
BRANCH   1   6
ATOM     6   C7  UNL     1      -1.149   0.120   3.636  1.00  0.00     0.088 A   
ATOM     7   C2  UNL     1      -1.027   1.329   4.357  1.00  0.00     0.101 A   
ATOM     8   C3  UNL     1      -1.225   1.312   5.746  1.00  0.00     0.074 A   
ATOM     9   C4  UNL     1      -1.543   0.127   6.403  1.00  0.00     0.125 A   
ATOM     10  C6  UNL     1      -1.475  -1.068   4.329  1.00  0.00     0.032 A   
ATOM     11  C5  UNL     1      -1.671  -1.062   5.709  1.00  0.00     0.041 A   
ATOM     12  F1  UNL     1      -1.726   0.141   7.729  1.00  0.00    -0.207 F   
BRANCH   7  13
ATOM     13  O1  UNL     1      -0.713   2.473   3.674  1.00  0.00    -0.347 OA  
ATOM     14  C1  UNL     1      -0.674   3.701   4.397  1.00  0.00     0.203 C   
ENDBRANCH   7  13
ENDBRANCH   1   6
BRANCH   3  15
ATOM     15  C10 UNL     1      -0.317   0.781  -1.315  1.00  0.00     0.117 C   
BRANCH  15  16
ATOM     16  N2  UNL     1       0.135  -0.369  -2.175  1.00  0.00     0.249 N   
ATOM     17  H9  UNL     1      -0.462  -1.175  -1.929  1.00  0.00     0.199 HD  
ATOM     18  H10 UNL     1      -0.021  -0.195  -3.172  1.00  0.00     0.199 HD  
BRANCH  16  19
ATOM     19  C11 UNL     1       1.545  -0.801  -1.969  1.00  0.00     0.164 C   
BRANCH  19  20
ATOM     20  C12 UNL     1       1.851  -2.005  -2.814  1.00  0.00    -0.002 A   
ATOM     21  C13 UNL     1       2.451  -1.856  -4.087  1.00  0.00     0.012 A   
ATOM     22  C17 UNL     1       1.490  -3.287  -2.363  1.00  0.00     0.045 A   
ATOM     23  C14 UNL     1       2.699  -2.970  -4.897  1.00  0.00     0.037 A   
ATOM     24  C16 UNL     1       1.746  -4.362  -3.188  1.00  0.00     0.109 A   
ATOM     25  C15 UNL     1       2.334  -4.208  -4.420  1.00  0.00     0.108 A   
ATOM     26  O2  UNL     1       1.459  -5.660  -2.908  1.00  0.00    -0.316 OA  
ATOM     27  O3  UNL     1       2.494  -5.391  -5.069  1.00  0.00    -0.316 OA  
ATOM     28  C18 UNL     1       1.950  -6.314  -4.100  1.00  0.00     0.337 C   
ENDBRANCH  19  20
ENDBRANCH  16  19
ENDBRANCH  15  16
BRANCH  15  29
ATOM     29  C19 UNL     1      -1.536   1.478  -1.953  1.00  0.00     0.043 C   
ATOM     30  C20 UNL     1      -2.749   0.580  -2.236  1.00  0.00     0.010 C   
ATOM     31  C23 UNL     1      -1.236   2.177  -3.294  1.00  0.00     0.010 C   
ATOM     32  C21 UNL     1      -3.505   1.342  -3.312  1.00  0.00     0.001 C   
ATOM     33  C22 UNL     1      -2.394   1.827  -4.227  1.00  0.00     0.001 C   
ENDBRANCH  15  29
ENDBRANCH   3  15
TORSDOF 7
