REMARK SMILES CC(C)[C@H]([NH2+]Cc1ccc2c(c1)OCO2)c1cn(CCc2cc(F)cc(F)c2)nn1
REMARK SMILES IDX 16 1 17 2 18 3 29 4 30 5 4 7 2 8 1 9 3 10 5 11 6 14 7 15
REMARK SMILES IDX 8 16 12 17 9 18 11 19 10 20 13 21 15 22 14 23 19 24 20 25
REMARK SMILES IDX 21 26 22 27 28 28 23 29 26 30 25 31 24 32 27 33
REMARK H PARENT 17 6 5 12 5 13
ROOT
ATOM     1   C13 UNL     1       1.614   1.238   0.259  1.00  0.00     0.127 A   
ATOM     2   C14 UNL     1       1.837   1.057   1.606  1.00  0.00     0.045 A   
ATOM     3   N2  UNL     1       1.180   2.104   2.191  1.00  0.00    -0.212 N   
ATOM     4   N3  UNL     1       0.619   2.901   1.263  1.00  0.00    -0.076 NA  
ATOM     5   N4  UNL     1       0.874   2.378   0.075  1.00  0.00    -0.132 NA  
ATOM     6   H18 UNL     1       2.337   0.291   2.182  1.00  0.00     0.083 HD  
ENDROOT
BRANCH   1   7
ATOM     7   C4  UNL     1       1.967   0.389  -0.921  1.00  0.00     0.117 C   
BRANCH   7   8
ATOM     8   C2  UNL     1       3.366   0.733  -1.496  1.00  0.00     0.037 C   
ATOM     9   C1  UNL     1       3.854  -0.342  -2.475  1.00  0.00     0.014 C   
ATOM     10  C3  UNL     1       3.446   2.111  -2.164  1.00  0.00     0.014 C   
ENDBRANCH   7   8
BRANCH   7  11
ATOM     11  N1  UNL     1       0.913   0.516  -1.987  1.00  0.00     0.249 N   
ATOM     12  H9  UNL     1       0.704   1.522  -2.081  1.00  0.00     0.199 HD  
ATOM     13  H10 UNL     1       1.250   0.205  -2.903  1.00  0.00     0.199 HD  
BRANCH  11  14
ATOM     14  C5  UNL     1      -0.377  -0.171  -1.690  1.00  0.00     0.164 C   
BRANCH  14  15
ATOM     15  C6  UNL     1      -1.374   0.098  -2.781  1.00  0.00    -0.002 A   
ATOM     16  C7  UNL     1      -2.193   1.251  -2.725  1.00  0.00     0.012 A   
ATOM     17  C11 UNL     1      -1.460  -0.761  -3.891  1.00  0.00     0.045 A   
ATOM     18  C8  UNL     1      -3.096   1.542  -3.754  1.00  0.00     0.037 A   
ATOM     19  C10 UNL     1      -2.360  -0.444  -4.887  1.00  0.00     0.109 A   
ATOM     20  C9  UNL     1      -3.155   0.673  -4.821  1.00  0.00     0.108 A   
ATOM     21  O1  UNL     1      -2.567  -1.163  -6.021  1.00  0.00    -0.316 OA  
ATOM     22  O2  UNL     1      -3.965   0.798  -5.905  1.00  0.00    -0.316 OA  
ATOM     23  C12 UNL     1      -3.608  -0.384  -6.653  1.00  0.00     0.337 C   
ENDBRANCH  14  15
ENDBRANCH  11  14
ENDBRANCH   7  11
ENDBRANCH   1   7
BRANCH   3  24
ATOM     24  C15 UNL     1       0.934   2.327   3.602  1.00  0.00     0.139 C   
BRANCH  24  25
ATOM     25  C16 UNL     1      -0.522   2.063   4.005  1.00  0.00     0.057 C   
BRANCH  25  26
ATOM     26  C17 UNL     1      -0.967   0.649   3.707  1.00  0.00    -0.041 A   
ATOM     27  C18 UNL     1      -1.585   0.347   2.484  1.00  0.00     0.043 A   
ATOM     28  C22 UNL     1      -0.717  -0.393   4.609  1.00  0.00     0.043 A   
ATOM     29  C19 UNL     1      -1.913  -0.970   2.169  1.00  0.00     0.126 A   
ATOM     30  C21 UNL     1      -1.075  -1.700   4.280  1.00  0.00     0.126 A   
ATOM     31  C20 UNL     1      -1.667  -2.002   3.062  1.00  0.00     0.078 A   
ATOM     32  F1  UNL     1      -2.432  -1.241   0.964  1.00  0.00    -0.207 F   
ATOM     33  F2  UNL     1      -0.818  -2.687   5.148  1.00  0.00    -0.207 F   
ENDBRANCH  25  26
ENDBRANCH  24  25
ENDBRANCH   3  24
TORSDOF 8
