REMARK SMILES CC(C)[C@H]([NH2+]Cc1ccc2c(c1)OCO2)c1cn(Cc2cnc(Cl)s2)nn1
REMARK SMILES IDX 16 1 17 2 18 3 26 4 27 5 4 7 2 8 1 9 3 10 5 11 6 14 7 15
REMARK SMILES IDX 8 16 12 17 9 18 11 19 10 20 13 21 15 22 14 23 19 24 20 25
REMARK SMILES IDX 21 26 25 27 22 28 23 29 24 30
REMARK H PARENT 17 6 5 12 5 13
ROOT
ATOM     1   C13 UNL     1      -0.604  -0.436  -1.396  1.00  0.00     0.127 A   
ATOM     2   C14 UNL     1      -1.571  -0.820  -0.493  1.00  0.00     0.046 A   
ATOM     3   N2  UNL     1      -1.114  -2.017  -0.013  1.00  0.00    -0.207 N   
ATOM     4   N4  UNL     1       0.050  -2.358  -0.598  1.00  0.00    -0.076 NA  
ATOM     5   N5  UNL     1       0.378  -1.393  -1.440  1.00  0.00    -0.132 NA  
ATOM     6   H18 UNL     1      -2.489  -0.367  -0.146  1.00  0.00     0.083 HD  
ENDROOT
BRANCH   1   7
ATOM     7   C4  UNL     1      -0.458   0.797  -2.230  1.00  0.00     0.117 C   
BRANCH   7   8
ATOM     8   C2  UNL     1      -1.147   0.657  -3.613  1.00  0.00     0.037 C   
ATOM     9   C1  UNL     1      -1.230   2.007  -4.337  1.00  0.00     0.014 C   
ATOM     10  C3  UNL     1      -0.505  -0.387  -4.535  1.00  0.00     0.014 C   
ENDBRANCH   7   8
BRANCH   7  11
ATOM     11  N1  UNL     1       1.006   1.133  -2.394  1.00  0.00     0.249 N   
ATOM     12  H9  UNL     1       1.220   1.406  -3.357  1.00  0.00     0.199 HD  
ATOM     13  H10 UNL     1       1.518   0.249  -2.237  1.00  0.00     0.199 HD  
BRANCH  11  14
ATOM     14  C5  UNL     1       1.554   2.162  -1.467  1.00  0.00     0.164 C   
BRANCH  14  15
ATOM     15  C6  UNL     1       1.532   1.760  -0.020  1.00  0.00    -0.002 A   
ATOM     16  C7  UNL     1       0.590   2.330   0.871  1.00  0.00     0.012 A   
ATOM     17  C11 UNL     1       2.443   0.802   0.461  1.00  0.00     0.045 A   
ATOM     18  C8  UNL     1       0.554   1.955   2.218  1.00  0.00     0.037 A   
ATOM     19  C10 UNL     1       2.387   0.462   1.796  1.00  0.00     0.109 A   
ATOM     20  C9  UNL     1       1.470   1.022   2.650  1.00  0.00     0.108 A   
ATOM     21  O1  UNL     1       3.206  -0.424   2.421  1.00  0.00    -0.316 OA  
ATOM     22  O2  UNL     1       1.595   0.560   3.921  1.00  0.00    -0.316 OA  
ATOM     23  C12 UNL     1       2.729  -0.325   3.783  1.00  0.00     0.337 C   
ENDBRANCH  14  15
ENDBRANCH  11  14
ENDBRANCH   7  11
ENDBRANCH   1   7
BRANCH   3  24
ATOM     24  C15 UNL     1      -1.730  -2.886   0.976  1.00  0.00     0.178 C   
BRANCH  24  25
ATOM     25  C16 UNL     1      -1.223  -2.565   2.339  1.00  0.00     0.030 A   
ATOM     26  C17 UNL     1      -0.107  -3.055   2.992  1.00  0.00     0.126 A   
ATOM     27  S1  UNL     1      -2.038  -1.451   3.366  1.00  0.00    -0.059 S   
ATOM     28  N3  UNL     1       0.098  -2.573   4.270  1.00  0.00    -0.237 NA  
ATOM     29  C18 UNL     1      -0.861  -1.730   4.561  1.00  0.00     0.167 A   
ATOM     30  CL1 UNL     1      -0.953  -0.913   6.064  1.00  0.00    -0.054 Cl  
ENDBRANCH  24  25
ENDBRANCH   3  24
TORSDOF 7
