REMARK SMILES Fc1cc(Cn2cc([C@@H]([NH2+]Cc3ccc4c(c3)OCO4)C3CCCCC3)nn2)cc(F)n1
REMARK SMILES IDX 6 1 7 2 8 3 27 4 28 5 5 7 4 8 2 9 3 10 32 11 30 12 29 13
REMARK SMILES IDX 1 14 31 15 9 16 10 17 11 20 12 21 13 22 17 23 14 24 16 25
REMARK SMILES IDX 15 26 18 27 20 28 19 29 21 30 22 31 26 32 23 33 25 34 24 35
REMARK H PARENT 7 6 10 18 10 19
ROOT
ATOM     1   N1  UNL     1      -2.765   1.448  -2.029  1.00  0.00    -0.208 N   
ATOM     2   C5  UNL     1      -1.847   1.529  -1.018  1.00  0.00     0.046 A   
ATOM     3   C6  UNL     1      -1.432   0.227  -0.841  1.00  0.00     0.127 A   
ATOM     4   N3  UNL     1      -2.125  -0.586  -1.703  1.00  0.00    -0.132 NA  
ATOM     5   N4  UNL     1      -2.945   0.170  -2.413  1.00  0.00    -0.076 NA  
ATOM     6   H4  UNL     1      -1.565   2.468  -0.562  1.00  0.00     0.083 HD  
ENDROOT
BRANCH   1   7
ATOM     7   C4  UNL     1      -3.488   2.527  -2.683  1.00  0.00     0.169 C   
BRANCH   7   8
ATOM     8   C3  UNL     1      -2.615   3.228  -3.692  1.00  0.00    -0.019 A   
ATOM     9   C1  UNL     1      -1.305   5.102  -4.410  1.00  0.00     0.215 A   
ATOM     10  C2  UNL     1      -2.128   4.516  -3.458  1.00  0.00     0.066 A   
ATOM     11  N5  UNL     1      -0.932   4.510  -5.557  1.00  0.00    -0.191 NA  
ATOM     12  C23 UNL     1      -1.422   3.277  -5.773  1.00  0.00     0.215 A   
ATOM     13  C22 UNL     1      -2.252   2.602  -4.889  1.00  0.00     0.066 A   
ATOM     14  F1  UNL     1      -0.833   6.331  -4.162  1.00  0.00    -0.185 F   
ATOM     15  F2  UNL     1      -1.069   2.658  -6.907  1.00  0.00    -0.185 F   
ENDBRANCH   7   8
ENDBRANCH   1   7
BRANCH   3  16
ATOM     16  C7  UNL     1      -0.416  -0.375   0.082  1.00  0.00     0.117 C   
BRANCH  16  17
ATOM     17  N2  UNL     1      -0.639  -1.864   0.204  1.00  0.00     0.249 N   
ATOM     18  H6  UNL     1       0.220  -2.349   0.475  1.00  0.00     0.199 HD  
ATOM     19  H7  UNL     1      -0.881  -2.194  -0.743  1.00  0.00     0.199 HD  
BRANCH  17  20
ATOM     20  C8  UNL     1      -1.744  -2.288   1.112  1.00  0.00     0.164 C   
BRANCH  20  21
ATOM     21  C9  UNL     1      -1.416  -2.068   2.563  1.00  0.00    -0.002 A   
ATOM     22  C10 UNL     1      -2.110  -1.089   3.313  1.00  0.00     0.012 A   
ATOM     23  C14 UNL     1      -0.400  -2.818   3.181  1.00  0.00     0.045 A   
ATOM     24  C11 UNL     1      -1.792  -0.850   4.654  1.00  0.00     0.037 A   
ATOM     25  C13 UNL     1      -0.110  -2.556   4.504  1.00  0.00     0.109 A   
ATOM     26  C12 UNL     1      -0.784  -1.599   5.220  1.00  0.00     0.108 A   
ATOM     27  O1  UNL     1       0.844  -3.181   5.242  1.00  0.00    -0.316 OA  
ATOM     28  O2  UNL     1      -0.343  -1.503   6.500  1.00  0.00    -0.316 OA  
ATOM     29  C15 UNL     1       0.672  -2.530   6.521  1.00  0.00     0.337 C   
ENDBRANCH  20  21
ENDBRANCH  17  20
ENDBRANCH  16  17
BRANCH  16  30
ATOM     30  C16 UNL     1       1.038  -0.085  -0.383  1.00  0.00     0.043 C   
ATOM     31  C17 UNL     1       2.062  -0.397   0.727  1.00  0.00     0.010 C   
ATOM     32  C21 UNL     1       1.431  -0.801  -1.691  1.00  0.00     0.010 C   
ATOM     33  C18 UNL     1       3.485  -0.047   0.293  1.00  0.00     0.001 C   
ATOM     34  C20 UNL     1       2.857  -0.451  -2.115  1.00  0.00     0.001 C   
ATOM     35  C19 UNL     1       3.864  -0.746  -1.008  1.00  0.00     0.000 C   
ENDBRANCH  16  30
ENDBRANCH   3  16
TORSDOF 7
