REMARK SMILES [O-]N([O-])c1cc(F)cc(Cn2cc([C@@H]([NH2+]Cc3ccc4c(c3)OCO4)C3CCCCC3)nn2)c1
REMARK SMILES IDX 11 1 12 2 13 3 32 4 33 5 10 7 9 8 4 9 5 10 34 11 6 12 8 13
REMARK SMILES IDX 7 14 2 15 1 16 3 17 14 18 15 19 16 22 17 23 18 24 22 25
REMARK SMILES IDX 19 26 21 27 20 28 23 29 25 30 24 31 26 32 27 33 31 34 28 35
REMARK SMILES IDX 30 36 29 37
REMARK H PARENT 12 6 15 20 15 21
ROOT
ATOM     1   N2  UNL     1      -1.030  -1.483   3.166  1.00  0.00    -0.208 N   
ATOM     2   C7  UNL     1      -1.112  -1.088   1.859  1.00  0.00     0.046 A   
ATOM     3   C8  UNL     1      -0.308  -1.984   1.188  1.00  0.00     0.127 A   
ATOM     4   N4  UNL     1       0.233  -2.863   2.092  1.00  0.00    -0.132 NA  
ATOM     5   N5  UNL     1      -0.210  -2.542   3.296  1.00  0.00    -0.076 NA  
ATOM     6   H5  UNL     1      -1.704  -0.240   1.544  1.00  0.00     0.083 HD  
ENDROOT
BRANCH   1   7
ATOM     7   C6  UNL     1      -1.679  -0.900   4.328  1.00  0.00     0.169 C   
BRANCH   7   8
ATOM     8   C5  UNL     1      -0.924   0.311   4.819  1.00  0.00    -0.024 A   
ATOM     9   C1  UNL     1       0.990   1.303   5.962  1.00  0.00     0.121 A   
ATOM     10  C2  UNL     1       0.499   2.587   5.712  1.00  0.00     0.070 A   
ATOM     11  C24 UNL     1       0.286   0.167   5.522  1.00  0.00     0.036 A   
ATOM     12  C3  UNL     1      -0.695   2.718   5.016  1.00  0.00     0.125 A   
ATOM     13  C4  UNL     1      -1.406   1.604   4.571  1.00  0.00     0.044 A   
ATOM     14  F1  UNL     1      -1.173   3.938   4.757  1.00  0.00    -0.207 F   
BRANCH   9  15
ATOM     15  N1  UNL     1       2.263   1.139   6.673  1.00  0.00     0.092 N   
ATOM     16  O1  UNL     1       2.850   2.162   7.046  1.00  0.00    -0.138 OA  
ATOM     17  O2  UNL     1       2.679  -0.015   6.839  1.00  0.00    -0.138 OA  
ENDBRANCH   9  15
ENDBRANCH   7   8
ENDBRANCH   1   7
BRANCH   3  18
ATOM     18  C9  UNL     1       0.077  -2.081  -0.253  1.00  0.00     0.117 C   
BRANCH  18  19
ATOM     19  N3  UNL     1       1.499  -2.591  -0.385  1.00  0.00     0.249 N   
ATOM     20  H7  UNL     1       1.690  -2.860  -1.354  1.00  0.00     0.199 HD  
ATOM     21  H8  UNL     1       1.556  -3.443   0.190  1.00  0.00     0.199 HD  
BRANCH  19  22
ATOM     22  C10 UNL     1       2.582  -1.680   0.094  1.00  0.00     0.164 C   
BRANCH  22  23
ATOM     23  C11 UNL     1       2.673  -0.404  -0.694  1.00  0.00    -0.002 A   
ATOM     24  C12 UNL     1       3.173  -0.409  -2.018  1.00  0.00     0.012 A   
ATOM     25  C16 UNL     1       2.228   0.804  -0.128  1.00  0.00     0.045 A   
ATOM     26  C13 UNL     1       3.223   0.768  -2.772  1.00  0.00     0.037 A   
ATOM     27  C15 UNL     1       2.291   1.946  -0.898  1.00  0.00     0.109 A   
ATOM     28  C14 UNL     1       2.773   1.929  -2.183  1.00  0.00     0.108 A   
ATOM     29  O3  UNL     1       1.896   3.186  -0.508  1.00  0.00    -0.316 OA  
ATOM     30  O4  UNL     1       2.744   3.155  -2.764  1.00  0.00    -0.316 OA  
ATOM     31  C17 UNL     1       2.225   3.961  -1.684  1.00  0.00     0.337 C   
ENDBRANCH  22  23
ENDBRANCH  19  22
ENDBRANCH  18  19
BRANCH  18  32
ATOM     32  C18 UNL     1      -0.847  -2.995  -1.104  1.00  0.00     0.043 C   
ATOM     33  C19 UNL     1      -2.272  -2.416  -1.213  1.00  0.00     0.010 C   
ATOM     34  C23 UNL     1      -0.902  -4.461  -0.630  1.00  0.00     0.010 C   
ATOM     35  C20 UNL     1      -3.163  -3.270  -2.111  1.00  0.00     0.001 C   
ATOM     36  C22 UNL     1      -1.803  -5.310  -1.526  1.00  0.00     0.001 C   
ATOM     37  C21 UNL     1      -3.204  -4.720  -1.642  1.00  0.00     0.000 C   
ENDBRANCH  18  32
ENDBRANCH   3  18
TORSDOF 8
