REMARK SMILES CC(C)[C@H]([NH2+]Cc1ccc2c(c1)OCO2)c1cn(C[C@@H](O)c2ccccc2Cl)nn1
REMARK SMILES IDX 16 1 17 2 18 3 29 4 30 5 4 7 2 8 1 9 3 10 5 11 6 14 7 15
REMARK SMILES IDX 8 16 12 17 9 18 11 19 10 20 13 21 15 22 14 23 19 24 20 25
REMARK SMILES IDX 21 26 22 28 23 29 27 30 24 31 26 32 25 33 28 34
REMARK H PARENT 17 6 5 12 5 13 21 27
ROOT
ATOM     1   C13 UNL     1      -0.876  -1.562  -0.383  1.00  0.00     0.127 A   
ATOM     2   C14 UNL     1      -1.908  -1.267   0.480  1.00  0.00     0.045 A   
ATOM     3   N2  UNL     1      -1.319  -1.277   1.714  1.00  0.00    -0.209 N   
ATOM     4   N3  UNL     1      -0.003  -1.540   1.617  1.00  0.00    -0.076 NA  
ATOM     5   N4  UNL     1       0.280  -1.725   0.339  1.00  0.00    -0.132 NA  
ATOM     6   H18 UNL     1      -2.957  -1.040   0.345  1.00  0.00     0.083 HD  
ENDROOT
BRANCH   1   7
ATOM     7   C4  UNL     1      -0.821  -1.639  -1.874  1.00  0.00     0.117 C   
BRANCH   7   8
ATOM     8   C2  UNL     1      -1.123  -3.046  -2.450  1.00  0.00     0.037 C   
ATOM     9   C1  UNL     1      -2.569  -3.474  -2.171  1.00  0.00     0.014 C   
ATOM     10  C3  UNL     1      -0.158  -4.140  -1.975  1.00  0.00     0.014 C   
ENDBRANCH   7   8
BRANCH   7  11
ATOM     11  N1  UNL     1       0.549  -1.212  -2.348  1.00  0.00     0.249 N   
ATOM     12  H9  UNL     1       1.227  -1.670  -1.719  1.00  0.00     0.199 HD  
ATOM     13  H10 UNL     1       0.756  -1.556  -3.292  1.00  0.00     0.199 HD  
BRANCH  11  14
ATOM     14  C5  UNL     1       0.819   0.253  -2.278  1.00  0.00     0.164 C   
BRANCH  14  15
ATOM     15  C6  UNL     1       2.262   0.536  -2.593  1.00  0.00    -0.002 A   
ATOM     16  C7  UNL     1       2.651   0.938  -3.893  1.00  0.00     0.012 A   
ATOM     17  C11 UNL     1       3.243   0.352  -1.601  1.00  0.00     0.045 A   
ATOM     18  C8  UNL     1       3.999   1.163  -4.201  1.00  0.00     0.037 A   
ATOM     19  C10 UNL     1       4.561   0.580  -1.939  1.00  0.00     0.109 A   
ATOM     20  C9  UNL     1       4.930   0.973  -3.202  1.00  0.00     0.108 A   
ATOM     21  O1  UNL     1       5.624   0.443  -1.104  1.00  0.00    -0.316 OA  
ATOM     22  O2  UNL     1       6.273   1.137  -3.321  1.00  0.00    -0.316 OA  
ATOM     23  C12 UNL     1       6.710   0.817  -1.982  1.00  0.00     0.337 C   
ENDBRANCH  14  15
ENDBRANCH  11  14
ENDBRANCH   7  11
ENDBRANCH   1   7
BRANCH   3  24
ATOM     24  C15 UNL     1      -1.930  -1.029   3.005  1.00  0.00     0.170 C   
BRANCH  24  25
ATOM     25  C16 UNL     1      -2.006   0.470   3.308  1.00  0.00     0.165 C   
BRANCH  25  26
ATOM     26  O3  UNL     1      -3.008   1.073   2.471  1.00  0.00    -0.387 OA  
ATOM     27  H22 UNL     1      -3.219   1.941   2.862  1.00  0.00     0.211 HD  
ENDBRANCH  25  26
BRANCH  25  28
ATOM     28  C17 UNL     1      -2.327   0.716   4.771  1.00  0.00     0.001 A   
ATOM     29  C18 UNL     1      -3.664   0.698   5.212  1.00  0.00     0.008 A   
ATOM     30  C22 UNL     1      -1.317   0.920   5.729  1.00  0.00     0.046 A   
ATOM     31  C19 UNL     1      -3.982   0.911   6.555  1.00  0.00     0.000 A   
ATOM     32  C21 UNL     1      -1.639   1.135   7.073  1.00  0.00     0.021 A   
ATOM     33  C20 UNL     1      -2.970   1.137   7.484  1.00  0.00     0.002 A   
ATOM     34  CL1 UNL     1       0.357   0.897   5.308  1.00  0.00    -0.084 Cl  
ENDBRANCH  25  28
ENDBRANCH  24  25
ENDBRANCH   3  24
TORSDOF 9
