REMARK SMILES CC(C)C[C@H]([NH2+]Cc1ccc2c(c1)OCO2)c1cn(-c2cc(CO)cc(CO)c2)nn1
REMARK SMILES IDX 17 1 18 2 19 3 30 4 31 5 5 6 4 7 2 8 1 9 3 10 6 11 7 14 8 15
REMARK SMILES IDX 9 16 13 17 10 18 12 19 11 20 14 21 16 22 15 23 20 24 21 25
REMARK SMILES IDX 29 26 22 27 26 28 25 29 23 30 24 31 27 33 28 34
REMARK H PARENT 6 12 6 13 24 32 28 35
ROOT
ATOM     1   C14 UNL     1       0.818  -1.089  -0.523  1.00  0.00     0.127 A   
ATOM     2   C15 UNL     1      -0.513  -1.100  -0.875  1.00  0.00     0.135 A   
ATOM     3   N2  UNL     1      -1.006  -2.297  -0.387  1.00  0.00    -0.181 N   
ATOM     4   N3  UNL     1       0.001  -2.949   0.253  1.00  0.00    -0.071 NA  
ATOM     5   N4  UNL     1       1.111  -2.236   0.156  1.00  0.00    -0.131 NA  
ENDROOT
BRANCH   1   6
ATOM     6   C5  UNL     1       1.885  -0.066  -0.745  1.00  0.00     0.114 C   
BRANCH   6   7
ATOM     7   C4  UNL     1       2.574  -0.291  -2.108  1.00  0.00     0.064 C   
BRANCH   7   8
ATOM     8   C2  UNL     1       3.664   0.726  -2.507  1.00  0.00    -0.012 C   
ATOM     9   C1  UNL     1       4.207   0.379  -3.897  1.00  0.00     0.007 C   
ATOM     10  C3  UNL     1       3.157   2.169  -2.498  1.00  0.00     0.007 C   
ENDBRANCH   7   8
ENDBRANCH   6   7
BRANCH   6  11
ATOM     11  N1  UNL     1       2.926  -0.132   0.348  1.00  0.00     0.249 N   
ATOM     12  H11 UNL     1       3.740   0.437   0.106  1.00  0.00     0.199 HD  
ATOM     13  H12 UNL     1       3.236  -1.113   0.394  1.00  0.00     0.199 HD  
BRANCH  11  14
ATOM     14  C6  UNL     1       2.477   0.252   1.721  1.00  0.00     0.164 C   
BRANCH  14  15
ATOM     15  C7  UNL     1       2.100   1.703   1.831  1.00  0.00    -0.002 A   
ATOM     16  C8  UNL     1       3.099   2.706   1.838  1.00  0.00     0.012 A   
ATOM     17  C12 UNL     1       0.747   2.074   1.901  1.00  0.00     0.045 A   
ATOM     18  C9  UNL     1       2.755   4.061   1.912  1.00  0.00     0.037 A   
ATOM     19  C11 UNL     1       0.442   3.417   1.974  1.00  0.00     0.109 A   
ATOM     20  C10 UNL     1       1.418   4.383   1.979  1.00  0.00     0.108 A   
ATOM     21  O1  UNL     1      -0.810   3.940   2.053  1.00  0.00    -0.316 OA  
ATOM     22  O2  UNL     1       0.903   5.638   2.063  1.00  0.00    -0.316 OA  
ATOM     23  C13 UNL     1      -0.511   5.353   2.145  1.00  0.00     0.337 C   
ENDBRANCH  14  15
ENDBRANCH  11  14
ENDBRANCH   6  11
ENDBRANCH   1   6
BRANCH   3  24
ATOM     24  C16 UNL     1      -2.318  -2.824  -0.471  1.00  0.00     0.058 A   
ATOM     25  C17 UNL     1      -3.329  -2.129  -1.149  1.00  0.00     0.032 A   
ATOM     26  C23 UNL     1      -2.609  -4.057   0.133  1.00  0.00     0.032 A   
ATOM     27  C18 UNL     1      -4.628  -2.654  -1.230  1.00  0.00    -0.020 A   
ATOM     28  C21 UNL     1      -3.898  -4.606   0.058  1.00  0.00    -0.020 A   
ATOM     29  C20 UNL     1      -4.899  -3.888  -0.616  1.00  0.00     0.012 A   
BRANCH  27  30
ATOM     30  C19 UNL     1      -5.743  -1.935  -1.952  1.00  0.00     0.191 C   
BRANCH  30  31
ATOM     31  O3  UNL     1      -5.284  -0.733  -2.562  1.00  0.00    -0.392 OA  
ATOM     32  H24 UNL     1      -6.059  -0.336  -2.998  1.00  0.00     0.211 HD  
ENDBRANCH  30  31
ENDBRANCH  27  30
BRANCH  28  33
ATOM     33  C22 UNL     1      -4.247  -5.915   0.724  1.00  0.00     0.191 C   
BRANCH  33  34
ATOM     34  O4  UNL     1      -3.085  -6.693   0.979  1.00  0.00    -0.392 OA  
ATOM     35  H28 UNL     1      -3.391  -7.545   1.334  1.00  0.00     0.211 HD  
ENDBRANCH  33  34
ENDBRANCH  28  33
ENDBRANCH   3  24
TORSDOF 11
