REMARK SMILES CC(C)(C)[C@H]([NH2+]Cc1ccc2c(c1)OCO2)c1cn(CCc2ccc(F)cc2F)nn1
REMARK SMILES IDX 17 1 18 2 19 3 30 4 31 5 5 7 2 8 1 9 3 10 4 11 6 12 7 15
REMARK SMILES IDX 8 16 9 17 13 18 10 19 12 20 11 21 14 22 16 23 15 24 20 25
REMARK SMILES IDX 21 26 22 27 23 28 28 29 24 30 27 31 25 32 29 33 26 34
REMARK H PARENT 18 6 6 13 6 14
ROOT
ATOM     1   C14 UNL     1      -0.611  -1.475   0.681  1.00  0.00     0.127 A   
ATOM     2   C15 UNL     1      -1.164  -0.417  -0.006  1.00  0.00     0.045 A   
ATOM     3   N2  UNL     1      -2.205  -0.020   0.784  1.00  0.00    -0.212 N   
ATOM     4   N3  UNL     1      -2.291  -0.783   1.888  1.00  0.00    -0.076 NA  
ATOM     5   N4  UNL     1      -1.322  -1.681   1.836  1.00  0.00    -0.132 NA  
ATOM     6   H20 UNL     1      -0.915   0.081  -0.934  1.00  0.00     0.083 HD  
ENDROOT
BRANCH   1   7
ATOM     7   C5  UNL     1       0.605  -2.307   0.409  1.00  0.00     0.120 C   
BRANCH   7   8
ATOM     8   C2  UNL     1       0.316  -3.622  -0.400  1.00  0.00     0.010 C   
ATOM     9   C1  UNL     1      -0.381  -3.282  -1.738  1.00  0.00     0.017 C   
ATOM     10  C3  UNL     1       1.642  -4.335  -0.756  1.00  0.00     0.017 C   
ATOM     11  C4  UNL     1      -0.575  -4.615   0.371  1.00  0.00     0.017 C   
ENDBRANCH   7   8
BRANCH   7  12
ATOM     12  N1  UNL     1       1.277  -2.642   1.729  1.00  0.00     0.250 N   
ATOM     13  H11 UNL     1       0.531  -3.000   2.343  1.00  0.00     0.199 HD  
ATOM     14  H12 UNL     1       1.966  -3.387   1.619  1.00  0.00     0.199 HD  
BRANCH  12  15
ATOM     15  C6  UNL     1       1.918  -1.504   2.456  1.00  0.00     0.164 C   
BRANCH  15  16
ATOM     16  C7  UNL     1       3.105  -0.940   1.726  1.00  0.00    -0.002 A   
ATOM     17  C8  UNL     1       4.323  -1.657   1.659  1.00  0.00     0.012 A   
ATOM     18  C12 UNL     1       2.997   0.300   1.075  1.00  0.00     0.045 A   
ATOM     19  C9  UNL     1       5.416  -1.148   0.947  1.00  0.00     0.037 A   
ATOM     20  C11 UNL     1       4.091   0.773   0.382  1.00  0.00     0.109 A   
ATOM     21  C10 UNL     1       5.267   0.069   0.319  1.00  0.00     0.108 A   
ATOM     22  O1  UNL     1       4.146   1.944  -0.303  1.00  0.00    -0.316 OA  
ATOM     23  O2  UNL     1       6.214   0.709  -0.414  1.00  0.00    -0.316 OA  
ATOM     24  C13 UNL     1       5.510   1.915  -0.784  1.00  0.00     0.337 C   
ENDBRANCH  15  16
ENDBRANCH  12  15
ENDBRANCH   7  12
ENDBRANCH   1   7
BRANCH   3  25
ATOM     25  C16 UNL     1      -3.150   1.054   0.560  1.00  0.00     0.139 C   
BRANCH  25  26
ATOM     26  C17 UNL     1      -2.759   2.354   1.264  1.00  0.00     0.060 C   
BRANCH  26  27
ATOM     27  C18 UNL     1      -1.665   3.111   0.550  1.00  0.00    -0.010 A   
ATOM     28  C19 UNL     1      -1.978   3.994  -0.495  1.00  0.00     0.010 A   
ATOM     29  C23 UNL     1      -0.320   2.940   0.903  1.00  0.00     0.129 A   
ATOM     30  C20 UNL     1      -0.962   4.686  -1.157  1.00  0.00     0.040 A   
ATOM     31  C22 UNL     1       0.696   3.627   0.250  1.00  0.00     0.078 A   
ATOM     32  C21 UNL     1       0.363   4.497  -0.778  1.00  0.00     0.126 A   
ATOM     33  F2  UNL     1       0.009   2.075   1.875  1.00  0.00    -0.207 F   
ATOM     34  F1  UNL     1       1.333   5.158  -1.421  1.00  0.00    -0.207 F   
ENDBRANCH  26  27
ENDBRANCH  25  26
ENDBRANCH   3  25
TORSDOF 8
