REMARK SMILES COc1ccc(CCn2cc([C@H](CC(C)C)[NH2+]Cc3ccc4c(c3)OCO4)nn2)cc1C
REMARK SMILES IDX 9 1 10 2 11 3 28 4 29 5 8 7 7 8 6 9 3 10 4 11 31 12 5 13
REMARK SMILES IDX 30 14 32 15 2 16 1 17 12 18 13 19 14 20 15 21 16 22 17 23
REMARK SMILES IDX 18 26 19 27 20 28 24 29 21 30 23 31 22 32 25 33 27 34 26 35
REMARK H PARENT 10 6 17 24 17 25
ROOT
ATOM     1   N1  UNL     1       0.967   0.591  -2.315  1.00  0.00    -0.212 N   
ATOM     2   C8  UNL     1       0.346   1.260  -1.298  1.00  0.00     0.045 A   
ATOM     3   C9  UNL     1       1.194   1.089  -0.226  1.00  0.00     0.127 A   
ATOM     4   N3  UNL     1       2.303   0.393  -0.634  1.00  0.00    -0.132 NA  
ATOM     5   N4  UNL     1       2.157   0.107  -1.917  1.00  0.00    -0.076 NA  
ATOM     6   H10 UNL     1      -0.635   1.702  -1.406  1.00  0.00     0.083 HD  
ENDROOT
BRANCH   1   7
ATOM     7   C7  UNL     1       0.421   0.257  -3.614  1.00  0.00     0.139 C   
BRANCH   7   8
ATOM     8   C6  UNL     1       0.201  -1.248  -3.815  1.00  0.00     0.057 C   
BRANCH   8   9
ATOM     9   C5  UNL     1      -0.548  -1.917  -2.682  1.00  0.00    -0.046 A   
ATOM     10  C2  UNL     1      -1.859  -3.101  -0.512  1.00  0.00     0.077 A   
ATOM     11  C3  UNL     1      -2.530  -2.174  -1.312  1.00  0.00     0.034 A   
ATOM     12  C24 UNL     1      -0.528  -3.445  -0.771  1.00  0.00    -0.021 A   
ATOM     13  C4  UNL     1      -1.881  -1.593  -2.403  1.00  0.00     0.006 A   
ATOM     14  C23 UNL     1       0.112  -2.856  -1.870  1.00  0.00     0.010 A   
ATOM     15  C25 UNL     1       0.195  -4.464   0.062  1.00  0.00     0.047 C   
BRANCH  10  16
ATOM     16  O1  UNL     1      -2.475  -3.600   0.605  1.00  0.00    -0.349 OA  
ATOM     17  C1  UNL     1      -3.425  -4.608   0.245  1.00  0.00     0.203 C   
ENDBRANCH  10  16
ENDBRANCH   8   9
ENDBRANCH   7   8
ENDBRANCH   1   7
BRANCH   3  18
ATOM     18  C10 UNL     1       1.008   1.401   1.219  1.00  0.00     0.114 C   
BRANCH  18  19
ATOM     19  C11 UNL     1       2.089   2.345   1.778  1.00  0.00     0.064 C   
BRANCH  19  20
ATOM     20  C12 UNL     1       2.134   3.745   1.125  1.00  0.00    -0.012 C   
ATOM     21  C13 UNL     1       3.268   4.567   1.746  1.00  0.00     0.007 C   
ATOM     22  C14 UNL     1       0.810   4.500   1.266  1.00  0.00     0.007 C   
ENDBRANCH  19  20
ENDBRANCH  18  19
BRANCH  18  23
ATOM     23  N2  UNL     1       1.085   0.115   2.019  1.00  0.00     0.249 N   
ATOM     24  H21 UNL     1       1.176   0.323   3.017  1.00  0.00     0.199 HD  
ATOM     25  H22 UNL     1       1.951  -0.356   1.724  1.00  0.00     0.199 HD  
BRANCH  23  26
ATOM     26  C15 UNL     1      -0.044  -0.844   1.823  1.00  0.00     0.164 C   
BRANCH  26  27
ATOM     27  C16 UNL     1      -1.301  -0.393   2.512  1.00  0.00    -0.002 A   
ATOM     28  C17 UNL     1      -1.456  -0.577   3.905  1.00  0.00     0.012 A   
ATOM     29  C21 UNL     1      -2.316   0.251   1.782  1.00  0.00     0.045 A   
ATOM     30  C18 UNL     1      -2.601  -0.117   4.567  1.00  0.00     0.037 A   
ATOM     31  C20 UNL     1      -3.429   0.697   2.465  1.00  0.00     0.109 A   
ATOM     32  C19 UNL     1      -3.567   0.518   3.818  1.00  0.00     0.108 A   
ATOM     33  O2  UNL     1      -4.487   1.350   1.916  1.00  0.00    -0.316 OA  
ATOM     34  O3  UNL     1      -4.730   1.035   4.293  1.00  0.00    -0.316 OA  
ATOM     35  C22 UNL     1      -5.325   1.540   3.079  1.00  0.00     0.337 C   
ENDBRANCH  26  27
ENDBRANCH  23  26
ENDBRANCH  18  23
ENDBRANCH   3  18
TORSDOF 10
