REMARK SMILES Cc1cc(-n2cc([C@@H]([NH2+]Cc3ccc4c(c3)OCO4)C3CCCC3)nn2)ccc1O
REMARK SMILES IDX 5 1 6 2 7 3 25 4 26 5 4 6 2 7 3 8 29 9 28 10 27 11 1 12
REMARK SMILES IDX 30 13 8 15 9 16 10 19 11 20 12 21 16 22 13 23 15 24 14 25
REMARK SMILES IDX 17 26 19 27 18 28 20 29 21 30 24 31 22 32 23 33
REMARK H PARENT 30 14 9 17 9 18
ROOT
ATOM     1   N1  UNL     1       0.560   1.786  -1.114  1.00  0.00    -0.181 N   
ATOM     2   C5  UNL     1      -0.764   1.424  -1.283  1.00  0.00     0.135 A   
ATOM     3   C6  UNL     1      -1.031   0.548  -0.255  1.00  0.00     0.127 A   
ATOM     4   N3  UNL     1       0.101   0.377   0.491  1.00  0.00    -0.131 NA  
ATOM     5   N4  UNL     1       1.060   1.114  -0.043  1.00  0.00    -0.071 NA  
ENDROOT
BRANCH   1   6
ATOM     6   C4  UNL     1       1.351   2.678  -1.880  1.00  0.00     0.058 A   
ATOM     7   C2  UNL     1       1.603   4.248  -3.727  1.00  0.00    -0.019 A   
ATOM     8   C3  UNL     1       0.809   3.364  -2.978  1.00  0.00     0.032 A   
ATOM     9   C23 UNL     1       2.939   4.436  -3.358  1.00  0.00     0.074 A   
ATOM     10  C22 UNL     1       3.489   3.760  -2.273  1.00  0.00     0.035 A   
ATOM     11  C21 UNL     1       2.695   2.881  -1.532  1.00  0.00     0.028 A   
ATOM     12  C1  UNL     1       1.023   4.991  -4.899  1.00  0.00     0.047 C   
BRANCH   9  13
ATOM     13  O3  UNL     1       3.699   5.305  -4.089  1.00  0.00    -0.361 OA  
ATOM     14  H27 UNL     1       4.610   5.302  -3.748  1.00  0.00     0.218 HD  
ENDBRANCH   9  13
ENDBRANCH   1   6
BRANCH   3  15
ATOM     15  C7  UNL     1      -2.270  -0.209   0.110  1.00  0.00     0.117 C   
BRANCH  15  16
ATOM     16  N2  UNL     1      -1.884  -1.514   0.765  1.00  0.00     0.249 N   
ATOM     17  H7  UNL     1      -2.648  -1.918   1.312  1.00  0.00     0.199 HD  
ATOM     18  H8  UNL     1      -1.134  -1.296   1.441  1.00  0.00     0.199 HD  
BRANCH  16  19
ATOM     19  C8  UNL     1      -1.356  -2.559  -0.158  1.00  0.00     0.164 C   
BRANCH  19  20
ATOM     20  C9  UNL     1      -0.978  -3.794   0.609  1.00  0.00    -0.002 A   
ATOM     21  C10 UNL     1      -1.931  -4.819   0.831  1.00  0.00     0.012 A   
ATOM     22  C14 UNL     1       0.311  -3.914   1.158  1.00  0.00     0.045 A   
ATOM     23  C11 UNL     1      -1.603  -5.955   1.580  1.00  0.00     0.037 A   
ATOM     24  C13 UNL     1       0.603  -5.049   1.887  1.00  0.00     0.109 A   
ATOM     25  C12 UNL     1      -0.326  -6.040   2.092  1.00  0.00     0.108 A   
ATOM     26  O1  UNL     1       1.796  -5.324   2.477  1.00  0.00    -0.316 OA  
ATOM     27  O2  UNL     1       0.165  -7.064   2.836  1.00  0.00    -0.316 OA  
ATOM     28  C15 UNL     1       1.527  -6.628   3.041  1.00  0.00     0.337 C   
ENDBRANCH  19  20
ENDBRANCH  16  19
ENDBRANCH  15  16
BRANCH  15  29
ATOM     29  C16 UNL     1      -3.169   0.582   1.081  1.00  0.00     0.043 C   
ATOM     30  C17 UNL     1      -4.469  -0.130   1.467  1.00  0.00     0.010 C   
ATOM     31  C20 UNL     1      -3.679   1.911   0.495  1.00  0.00     0.010 C   
ATOM     32  C18 UNL     1      -5.312   0.989   2.056  1.00  0.00     0.001 C   
ATOM     33  C19 UNL     1      -5.022   2.195   1.170  1.00  0.00     0.001 C   
ENDBRANCH  15  29
ENDBRANCH   3  15
TORSDOF 7
