REMARK SMILES CC(C)[C@H]([NH2+]Cc1ccc2c(c1)OCO2)c1cn(Cc2ccc(C(C)(F)F)cn2)nn1
REMARK SMILES IDX 16 1 17 2 18 3 30 4 31 5 4 7 2 8 1 9 3 10 5 11 6 14 7 15
REMARK SMILES IDX 8 16 12 17 9 18 11 19 10 20 13 21 15 22 14 23 19 24 20 25
REMARK SMILES IDX 21 26 29 27 22 28 28 29 23 30 24 31 25 32 26 33 27 34
REMARK H PARENT 17 6 5 12 5 13
ROOT
ATOM     1   C13 UNL     1       1.180  -1.860   1.341  1.00  0.00     0.127 A   
ATOM     2   C14 UNL     1       0.584  -1.124   2.341  1.00  0.00     0.046 A   
ATOM     3   N2  UNL     1       1.278   0.057   2.346  1.00  0.00    -0.206 N   
ATOM     4   N4  UNL     1       2.251   0.045   1.412  1.00  0.00    -0.076 NA  
ATOM     5   N5  UNL     1       2.205  -1.126   0.795  1.00  0.00    -0.132 NA  
ATOM     6   H18 UNL     1      -0.254  -1.299   3.003  1.00  0.00     0.083 HD  
ENDROOT
BRANCH   1   7
ATOM     7   C4  UNL     1       0.837  -3.194   0.762  1.00  0.00     0.117 C   
BRANCH   7   8
ATOM     8   C2  UNL     1       1.541  -4.391   1.452  1.00  0.00     0.037 C   
ATOM     9   C1  UNL     1       3.072  -4.342   1.389  1.00  0.00     0.014 C   
ATOM     10  C3  UNL     1       1.088  -4.550   2.909  1.00  0.00     0.014 C   
ENDBRANCH   7   8
BRANCH   7  11
ATOM     11  N1  UNL     1       1.179  -3.222  -0.708  1.00  0.00     0.249 N   
ATOM     12  H9  UNL     1       2.133  -2.843  -0.797  1.00  0.00     0.199 HD  
ATOM     13  H10 UNL     1       1.208  -4.180  -1.071  1.00  0.00     0.199 HD  
BRANCH  11  14
ATOM     14  C5  UNL     1       0.298  -2.395  -1.580  1.00  0.00     0.164 C   
BRANCH  14  15
ATOM     15  C6  UNL     1       0.771  -2.430  -3.006  1.00  0.00    -0.002 A   
ATOM     16  C7  UNL     1       1.938  -1.721  -3.385  1.00  0.00     0.012 A   
ATOM     17  C11 UNL     1       0.074  -3.182  -3.967  1.00  0.00     0.045 A   
ATOM     18  C8  UNL     1       2.403  -1.758  -4.704  1.00  0.00     0.037 A   
ATOM     19  C10 UNL     1       0.557  -3.194  -5.259  1.00  0.00     0.109 A   
ATOM     20  C9  UNL     1       1.688  -2.501  -5.618  1.00  0.00     0.108 A   
ATOM     21  O1  UNL     1      -0.003  -3.857  -6.307  1.00  0.00    -0.316 OA  
ATOM     22  O2  UNL     1       1.985  -2.643  -6.936  1.00  0.00    -0.316 OA  
ATOM     23  C12 UNL     1       0.912  -3.507  -7.371  1.00  0.00     0.337 C   
ENDBRANCH  14  15
ENDBRANCH  11  14
ENDBRANCH   7  11
ENDBRANCH   1   7
BRANCH   3  24
ATOM     24  C15 UNL     1       1.050   1.229   3.171  1.00  0.00     0.190 C   
BRANCH  24  25
ATOM     25  C16 UNL     1      -0.186   1.949   2.704  1.00  0.00     0.060 A   
ATOM     26  C17 UNL     1      -0.118   2.906   1.695  1.00  0.00     0.026 A   
ATOM     27  N3  UNL     1      -1.362   1.579   3.272  1.00  0.00    -0.259 NA  
ATOM     28  C18 UNL     1      -1.296   3.509   1.259  1.00  0.00     0.013 A   
ATOM     29  C22 UNL     1      -2.490   2.187   2.833  1.00  0.00     0.121 A   
ATOM     30  C19 UNL     1      -2.518   3.147   1.833  1.00  0.00     0.039 A   
BRANCH  30  31
ATOM     31  C20 UNL     1      -3.819   3.761   1.394  1.00  0.00     0.271 C   
ATOM     32  C21 UNL     1      -4.101   5.072   2.115  1.00  0.00     0.093 C   
ATOM     33  F1  UNL     1      -3.833   4.008   0.051  1.00  0.00    -0.202 F   
ATOM     34  F2  UNL     1      -4.876   2.927   1.614  1.00  0.00    -0.202 F   
ENDBRANCH  30  31
ENDBRANCH  24  25
ENDBRANCH   3  24
TORSDOF 8
