REMARK SMILES CCn1c(-n2cc([C@@H]([NH2+]Cc3ccc4c(c3)OCO4)C3CCCCC3)nn2)nc2ccccc21
REMARK SMILES IDX 5 1 6 2 7 3 26 4 27 5 4 6 3 7 34 8 28 9 29 10 33 11 30 12
REMARK SMILES IDX 32 13 31 14 2 15 1 16 8 17 9 18 10 21 11 22 12 23 16 24
REMARK SMILES IDX 13 25 15 26 14 27 17 28 19 29 18 30 20 31 21 32 25 33 22 34
REMARK SMILES IDX 24 35 23 36
REMARK H PARENT 9 19 9 20
ROOT
ATOM     1   N2  UNL     1       1.836  -1.325   0.962  1.00  0.00    -0.149 N   
ATOM     2   C4  UNL     1       1.334  -0.065   0.712  1.00  0.00     0.138 A   
ATOM     3   C5  UNL     1       0.407  -0.241  -0.287  1.00  0.00     0.128 A   
ATOM     4   N4  UNL     1       0.380  -1.565  -0.638  1.00  0.00    -0.131 NA  
ATOM     5   N5  UNL     1       1.245  -2.213   0.129  1.00  0.00    -0.068 NA  
ENDROOT
BRANCH   1   6
ATOM     6   C3  UNL     1       2.799  -1.697   1.892  1.00  0.00     0.215 A   
ATOM     7   N1  UNL     1       3.279  -2.962   2.158  1.00  0.00    -0.270 N   
ATOM     8   C26 UNL     1       4.210  -2.842   3.175  1.00  0.00     0.061 A   
ATOM     9   N6  UNL     1       3.366  -0.791   2.667  1.00  0.00    -0.215 NA  
ATOM     10  C21 UNL     1       4.241  -1.481   3.464  1.00  0.00     0.088 A   
ATOM     11  C25 UNL     1       5.007  -3.770   3.861  1.00  0.00     0.026 A   
ATOM     12  C22 UNL     1       5.097  -1.002   4.468  1.00  0.00     0.030 A   
ATOM     13  C24 UNL     1       5.852  -3.276   4.861  1.00  0.00     0.002 A   
ATOM     14  C23 UNL     1       5.899  -1.914   5.162  1.00  0.00     0.002 A   
BRANCH   7  15
ATOM     15  C2  UNL     1       2.910  -4.226   1.543  1.00  0.00     0.111 C   
ATOM     16  C1  UNL     1       1.681  -4.844   2.190  1.00  0.00     0.025 C   
ENDBRANCH   7  15
ENDBRANCH   1   6
BRANCH   3  17
ATOM     17  C6  UNL     1      -0.471   0.741  -0.995  1.00  0.00     0.117 C   
BRANCH  17  18
ATOM     18  N3  UNL     1      -0.779   0.256  -2.390  1.00  0.00     0.249 N   
ATOM     19  H8  UNL     1      -0.984  -0.749  -2.305  1.00  0.00     0.199 HD  
ATOM     20  H9  UNL     1      -1.623   0.702  -2.759  1.00  0.00     0.199 HD  
BRANCH  18  21
ATOM     21  C7  UNL     1       0.318   0.406  -3.391  1.00  0.00     0.164 C   
BRANCH  21  22
ATOM     22  C8  UNL     1       0.386   1.798  -3.955  1.00  0.00    -0.002 A   
ATOM     23  C9  UNL     1      -0.486   2.183  -5.003  1.00  0.00     0.012 A   
ATOM     24  C13 UNL     1       1.288   2.738  -3.426  1.00  0.00     0.045 A   
ATOM     25  C10 UNL     1      -0.457   3.482  -5.521  1.00  0.00     0.037 A   
ATOM     26  C12 UNL     1       1.286   4.011  -3.956  1.00  0.00     0.109 A   
ATOM     27  C11 UNL     1       0.441   4.373  -4.976  1.00  0.00     0.108 A   
ATOM     28  O1  UNL     1       2.083   5.036  -3.553  1.00  0.00    -0.316 OA  
ATOM     29  O2  UNL     1       0.604   5.668  -5.351  1.00  0.00    -0.316 OA  
ATOM     30  C14 UNL     1       1.653   6.087  -4.450  1.00  0.00     0.337 C   
ENDBRANCH  21  22
ENDBRANCH  18  21
ENDBRANCH  17  18
BRANCH  17  31
ATOM     31  C15 UNL     1      -1.783   1.017  -0.212  1.00  0.00     0.043 C   
ATOM     32  C16 UNL     1      -2.769  -0.169  -0.197  1.00  0.00     0.010 C   
ATOM     33  C20 UNL     1      -2.490   2.290  -0.720  1.00  0.00     0.010 C   
ATOM     34  C17 UNL     1      -4.020   0.151   0.621  1.00  0.00     0.001 C   
ATOM     35  C19 UNL     1      -3.742   2.602   0.098  1.00  0.00     0.001 C   
ATOM     36  C18 UNL     1      -4.706   1.420   0.125  1.00  0.00     0.000 C   
ENDBRANCH  17  31
ENDBRANCH   3  17
TORSDOF 7
