REMARK SMILES Nc1ccccc1Cn1cc([C@@H]([NH2+]Cc2ccc3c(c2)OCO3)C2CCCCC2)nn1
REMARK SMILES IDX 9 1 10 2 11 3 30 4 31 5 8 7 7 8 2 9 3 10 4 11 6 12 5 13 1 14
REMARK SMILES IDX 12 17 13 18 14 21 15 22 16 23 20 24 17 25 19 26 18 27 21 28
REMARK SMILES IDX 23 29 22 30 24 31 25 32 29 33 26 34 28 35 27 36
REMARK H PARENT 10 6 1 15 1 16 13 19 13 20
ROOT
ATOM     1   N2  UNL     1      -0.391  -3.039   2.441  1.00  0.00    -0.208 N   
ATOM     2   C8  UNL     1       0.328  -2.367   1.490  1.00  0.00     0.046 A   
ATOM     3   C9  UNL     1      -0.612  -1.598   0.843  1.00  0.00     0.127 A   
ATOM     4   N4  UNL     1      -1.852  -1.862   1.370  1.00  0.00    -0.132 NA  
ATOM     5   N5  UNL     1      -1.706  -2.755   2.334  1.00  0.00    -0.076 NA  
ATOM     6   H9  UNL     1       1.401  -2.475   1.399  1.00  0.00     0.083 HD  
ENDROOT
BRANCH   1   7
ATOM     7   C7  UNL     1       0.090  -3.972   3.447  1.00  0.00     0.171 C   
BRANCH   7   8
ATOM     8   C6  UNL     1       0.922  -3.265   4.489  1.00  0.00    -0.008 A   
ATOM     9   C1  UNL     1       2.322  -3.184   4.384  1.00  0.00     0.028 A   
ATOM     10  C2  UNL     1       3.049  -2.546   5.397  1.00  0.00     0.023 A   
ATOM     11  C3  UNL     1       2.396  -1.921   6.459  1.00  0.00     0.002 A   
ATOM     12  C5  UNL     1       0.274  -2.623   5.561  1.00  0.00     0.007 A   
ATOM     13  C4  UNL     1       1.008  -1.953   6.538  1.00  0.00     0.000 A   
BRANCH   9  14
ATOM     14  N1  UNL     1       3.010  -3.911   3.390  1.00  0.00    -0.358 N   
ATOM     15  H1  UNL     1       3.093  -4.887   3.679  1.00  0.00     0.143 HD  
ATOM     16  H2  UNL     1       3.958  -3.556   3.264  1.00  0.00     0.143 HD  
ENDBRANCH   9  14
ENDBRANCH   7   8
ENDBRANCH   1   7
BRANCH   3  17
ATOM     17  C10 UNL     1      -0.480  -0.608  -0.269  1.00  0.00     0.117 C   
BRANCH  17  18
ATOM     18  N3  UNL     1      -1.808  -0.446  -0.973  1.00  0.00     0.249 N   
ATOM     19  H11 UNL     1      -1.872   0.457  -1.447  1.00  0.00     0.199 HD  
ATOM     20  H12 UNL     1      -2.519  -0.446  -0.226  1.00  0.00     0.199 HD  
BRANCH  18  21
ATOM     21  C11 UNL     1      -2.173  -1.531  -1.930  1.00  0.00     0.164 C   
BRANCH  21  22
ATOM     22  C12 UNL     1      -1.373  -1.465  -3.202  1.00  0.00    -0.002 A   
ATOM     23  C13 UNL     1      -1.632  -0.454  -4.160  1.00  0.00     0.012 A   
ATOM     24  C17 UNL     1      -0.337  -2.387  -3.434  1.00  0.00     0.045 A   
ATOM     25  C14 UNL     1      -0.865  -0.355  -5.327  1.00  0.00     0.037 A   
ATOM     26  C16 UNL     1       0.400  -2.260  -4.594  1.00  0.00     0.109 A   
ATOM     27  C15 UNL     1       0.146  -1.272  -5.513  1.00  0.00     0.108 A   
ATOM     28  O1  UNL     1       1.436  -3.058  -4.962  1.00  0.00    -0.316 OA  
ATOM     29  O2  UNL     1       0.988  -1.326  -6.577  1.00  0.00    -0.316 OA  
ATOM     30  C18 UNL     1       1.792  -2.476  -6.238  1.00  0.00     0.337 C   
ENDBRANCH  21  22
ENDBRANCH  18  21
ENDBRANCH  17  18
BRANCH  17  31
ATOM     31  C19 UNL     1       0.037   0.768   0.233  1.00  0.00     0.043 C   
ATOM     32  C20 UNL     1      -0.960   1.523   1.136  1.00  0.00     0.010 C   
ATOM     33  C24 UNL     1       0.485   1.669  -0.936  1.00  0.00     0.010 C   
ATOM     34  C21 UNL     1      -0.380   2.848   1.628  1.00  0.00     0.001 C   
ATOM     35  C23 UNL     1       1.061   2.994  -0.437  1.00  0.00     0.001 C   
ATOM     36  C22 UNL     1       0.079   3.728   0.469  1.00  0.00     0.000 C   
ENDBRANCH  17  31
ENDBRANCH   3  17
TORSDOF 8
