REMARK SMILES CC(C)(C)[C@H]([NH2+]Cc1ccc2c(c1)OCO2)c1cn(Cc2scnc2C2CC2)nn1
REMARK SMILES IDX 17 1 18 2 19 3 29 4 30 5 5 7 2 8 1 9 3 10 4 11 6 12 7 15
REMARK SMILES IDX 8 16 9 17 13 18 10 19 12 20 11 21 14 22 16 23 15 24 20 25
REMARK SMILES IDX 21 26 22 27 25 28 23 29 24 30 26 31 27 32 28 33
REMARK H PARENT 18 6 6 13 6 14
ROOT
ATOM     1   C14 UNL     1       1.516  -2.099  -0.686  1.00  0.00     0.127 A   
ATOM     2   C15 UNL     1       0.839  -1.744  -1.832  1.00  0.00     0.046 A   
ATOM     3   N2  UNL     1      -0.384  -2.341  -1.691  1.00  0.00    -0.207 N   
ATOM     4   N4  UNL     1      -0.453  -3.026  -0.533  1.00  0.00    -0.076 NA  
ATOM     5   N5  UNL     1       0.699  -2.874   0.097  1.00  0.00    -0.132 NA  
ATOM     6   H20 UNL     1       1.092  -1.137  -2.690  1.00  0.00     0.083 HD  
ENDROOT
BRANCH   1   7
ATOM     7   C5  UNL     1       2.873  -1.723  -0.173  1.00  0.00     0.120 C   
BRANCH   7   8
ATOM     8   C2  UNL     1       4.006  -2.746  -0.532  1.00  0.00     0.010 C   
ATOM     9   C1  UNL     1       5.374  -2.216  -0.043  1.00  0.00     0.017 C   
ATOM     10  C3  UNL     1       3.772  -4.141   0.082  1.00  0.00     0.017 C   
ATOM     11  C4  UNL     1       4.108  -2.906  -2.067  1.00  0.00     0.017 C   
ENDBRANCH   7   8
BRANCH   7  12
ATOM     12  N1  UNL     1       2.773  -1.540   1.330  1.00  0.00     0.250 N   
ATOM     13  H11 UNL     1       1.905  -2.025   1.616  1.00  0.00     0.199 HD  
ATOM     14  H12 UNL     1       3.521  -2.035   1.821  1.00  0.00     0.199 HD  
BRANCH  12  15
ATOM     15  C6  UNL     1       2.707  -0.138   1.822  1.00  0.00     0.164 C   
BRANCH  15  16
ATOM     16  C7  UNL     1       1.479   0.609   1.384  1.00  0.00    -0.002 A   
ATOM     17  C8  UNL     1       1.571   1.631   0.408  1.00  0.00     0.012 A   
ATOM     18  C12 UNL     1       0.225   0.297   1.940  1.00  0.00     0.045 A   
ATOM     19  C9  UNL     1       0.435   2.336  -0.005  1.00  0.00     0.037 A   
ATOM     20  C11 UNL     1      -0.872   1.019   1.518  1.00  0.00     0.109 A   
ATOM     21  C10 UNL     1      -0.771   2.011   0.575  1.00  0.00     0.108 A   
ATOM     22  O1  UNL     1      -2.143   0.863   1.974  1.00  0.00    -0.316 OA  
ATOM     23  O2  UNL     1      -1.962   2.610   0.321  1.00  0.00    -0.316 OA  
ATOM     24  C13 UNL     1      -2.824   1.913   1.248  1.00  0.00     0.337 C   
ENDBRANCH  15  16
ENDBRANCH  12  15
ENDBRANCH   7  12
ENDBRANCH   1   7
BRANCH   3  25
ATOM     25  C16 UNL     1      -1.505  -2.326  -2.617  1.00  0.00     0.178 C   
BRANCH  25  26
ATOM     26  C17 UNL     1      -2.268  -1.053  -2.496  1.00  0.00     0.032 A   
ATOM     27  S1  UNL     1      -2.030   0.233  -3.614  1.00  0.00    -0.079 S   
ATOM     28  C19 UNL     1      -3.224  -0.677  -1.574  1.00  0.00     0.056 A   
ATOM     29  C18 UNL     1      -3.211   1.157  -2.783  1.00  0.00     0.157 A   
ATOM     30  N3  UNL     1      -3.759   0.582  -1.737  1.00  0.00    -0.253 NA  
BRANCH  28  31
ATOM     31  C20 UNL     1      -3.681  -1.585  -0.395  1.00  0.00     0.039 C   
ATOM     32  C21 UNL     1      -5.124  -1.544   0.038  1.00  0.00     0.011 C   
ATOM     33  C22 UNL     1      -4.592  -2.752  -0.677  1.00  0.00     0.011 C   
ENDBRANCH  28  31
ENDBRANCH  25  26
ENDBRANCH   3  25
TORSDOF 8
