REMARK SMILES Cc1cc(Cn2cc([C@@H]([NH2+]Cc3ccc4c(c3)OCO4)C(C)(C)C)nn2)c(C)nn1
REMARK SMILES IDX 6 1 7 2 8 3 25 4 26 5 5 7 4 8 2 9 3 10 30 11 29 12 27 13
REMARK SMILES IDX 1 14 28 15 9 16 10 17 11 20 12 21 13 22 17 23 14 24 16 25
REMARK SMILES IDX 15 26 18 27 20 28 19 29 21 30 22 31 23 32 24 33
REMARK H PARENT 7 6 10 18 10 19
ROOT
ATOM     1   N1  UNL     1       0.208  -0.873  -1.550  1.00  0.00    -0.208 N   
ATOM     2   C6  UNL     1       0.946   0.085  -0.910  1.00  0.00     0.046 A   
ATOM     3   C7  UNL     1       1.621  -0.611   0.069  1.00  0.00     0.127 A   
ATOM     4   N3  UNL     1       1.270  -1.935   0.001  1.00  0.00    -0.132 NA  
ATOM     5   N4  UNL     1       0.416  -2.084  -0.998  1.00  0.00    -0.076 NA  
ATOM     6   H7  UNL     1       0.918   1.128  -1.193  1.00  0.00     0.083 HD  
ENDROOT
BRANCH   1   7
ATOM     7   C5  UNL     1      -0.653  -0.733  -2.715  1.00  0.00     0.171 C   
BRANCH   7   8
ATOM     8   C4  UNL     1      -1.757   0.263  -2.485  1.00  0.00    -0.004 A   
ATOM     9   C2  UNL     1      -2.652   2.482  -2.770  1.00  0.00     0.060 A   
ATOM     10  C3  UNL     1      -1.644   1.561  -3.004  1.00  0.00     0.032 A   
ATOM     11  N6  UNL     1      -3.735   2.152  -2.044  1.00  0.00    -0.156 NA  
ATOM     12  N5  UNL     1      -3.864   0.886  -1.544  1.00  0.00    -0.155 NA  
ATOM     13  C21 UNL     1      -2.907  -0.042  -1.756  1.00  0.00     0.065 A   
ATOM     14  C1  UNL     1      -2.576   3.873  -3.313  1.00  0.00     0.069 C   
ATOM     15  C22 UNL     1      -3.178  -1.398  -1.179  1.00  0.00     0.069 C   
ENDBRANCH   7   8
ENDBRANCH   1   7
BRANCH   3  16
ATOM     16  C8  UNL     1       2.556  -0.157   1.151  1.00  0.00     0.120 C   
BRANCH  16  17
ATOM     17  N2  UNL     1       2.330  -1.028   2.375  1.00  0.00     0.250 N   
ATOM     18  H9  UNL     1       1.857  -1.880   2.030  1.00  0.00     0.199 HD  
ATOM     19  H10 UNL     1       3.213  -1.359   2.771  1.00  0.00     0.199 HD  
BRANCH  17  20
ATOM     20  C9  UNL     1       1.499  -0.441   3.461  1.00  0.00     0.164 C   
BRANCH  20  21
ATOM     21  C10 UNL     1       0.065  -0.221   3.071  1.00  0.00    -0.002 A   
ATOM     22  C11 UNL     1      -0.822  -1.320   2.968  1.00  0.00     0.012 A   
ATOM     23  C15 UNL     1      -0.403   1.072   2.783  1.00  0.00     0.045 A   
ATOM     24  C12 UNL     1      -2.155  -1.135   2.589  1.00  0.00     0.037 A   
ATOM     25  C14 UNL     1      -1.721   1.219   2.406  1.00  0.00     0.109 A   
ATOM     26  C13 UNL     1      -2.573   0.147   2.314  1.00  0.00     0.108 A   
ATOM     27  O1  UNL     1      -2.327   2.394   2.092  1.00  0.00    -0.316 OA  
ATOM     28  O2  UNL     1      -3.825   0.510   1.935  1.00  0.00    -0.316 OA  
ATOM     29  C16 UNL     1      -3.675   1.942   1.818  1.00  0.00     0.337 C   
ENDBRANCH  20  21
ENDBRANCH  17  20
ENDBRANCH  16  17
BRANCH  16  30
ATOM     30  C17 UNL     1       4.070  -0.168   0.741  1.00  0.00     0.010 C   
ATOM     31  C18 UNL     1       4.936   0.412   1.884  1.00  0.00     0.017 C   
ATOM     32  C19 UNL     1       4.587  -1.581   0.402  1.00  0.00     0.017 C   
ATOM     33  C20 UNL     1       4.295   0.736  -0.493  1.00  0.00     0.017 C   
ENDBRANCH  16  30
ENDBRANCH   3  16
TORSDOF 7
