REMARK SMILES CCOc1nccc(-n2cc([C@@H]([NH2+]Cc3ccc4c(c3)OCO4)C(C)(C)C)nn2)c1F
REMARK SMILES IDX 9 1 10 2 11 3 28 4 29 5 8 6 4 7 5 8 30 9 6 10 7 11 31 12
REMARK SMILES IDX 3 13 2 14 1 15 12 16 13 17 14 20 15 21 16 22 20 23 17 24
REMARK SMILES IDX 19 25 18 26 21 27 23 28 22 29 24 30 25 31 26 32 27 33
REMARK H PARENT 13 18 13 19
ROOT
ATOM     1   N2  UNL     1      -1.432   0.334   1.419  1.00  0.00    -0.177 N   
ATOM     2   C7  UNL     1      -0.152   0.690   1.043  1.00  0.00     0.135 A   
ATOM     3   C8  UNL     1      -0.181   0.763  -0.332  1.00  0.00     0.128 A   
ATOM     4   N4  UNL     1      -1.428   0.417  -0.767  1.00  0.00    -0.131 NA  
ATOM     5   N5  UNL     1      -2.174   0.153   0.292  1.00  0.00    -0.071 NA  
ENDROOT
BRANCH   1   6
ATOM     6   C6  UNL     1      -1.988   0.140   2.703  1.00  0.00     0.099 A   
ATOM     7   C3  UNL     1      -1.842   0.088   5.090  1.00  0.00     0.205 A   
ATOM     8   N1  UNL     1      -3.142  -0.258   5.227  1.00  0.00    -0.230 NA  
ATOM     9   C22 UNL     1      -1.229   0.295   3.859  1.00  0.00     0.196 A   
ATOM     10  C4  UNL     1      -3.861  -0.401   4.096  1.00  0.00     0.116 A   
ATOM     11  C5  UNL     1      -3.339  -0.217   2.825  1.00  0.00     0.049 A   
ATOM     12  F1  UNL     1       0.069   0.631   3.814  1.00  0.00    -0.200 F   
BRANCH   7  13
ATOM     13  O1  UNL     1      -1.053   0.248   6.212  1.00  0.00    -0.327 OA  
BRANCH  13  14
ATOM     14  C2  UNL     1      -1.753   0.026   7.438  1.00  0.00     0.166 C   
ATOM     15  C1  UNL     1      -0.774   0.241   8.579  1.00  0.00     0.035 C   
ENDBRANCH  13  14
ENDBRANCH   7  13
ENDBRANCH   1   6
BRANCH   3  16
ATOM     16  C9  UNL     1       0.897   1.073  -1.330  1.00  0.00     0.120 C   
BRANCH  16  17
ATOM     17  N3  UNL     1       0.669   0.239  -2.569  1.00  0.00     0.250 N   
ATOM     18  H10 UNL     1       1.169   0.604  -3.384  1.00  0.00     0.199 HD  
ATOM     19  H11 UNL     1      -0.335   0.309  -2.797  1.00  0.00     0.199 HD  
BRANCH  17  20
ATOM     20  C10 UNL     1       0.988  -1.210  -2.435  1.00  0.00     0.164 C   
BRANCH  20  21
ATOM     21  C11 UNL     1       0.646  -1.939  -3.703  1.00  0.00    -0.002 A   
ATOM     22  C12 UNL     1      -0.668  -2.424  -3.910  1.00  0.00     0.012 A   
ATOM     23  C16 UNL     1       1.609  -2.092  -4.715  1.00  0.00     0.045 A   
ATOM     24  C13 UNL     1      -1.017  -3.064  -5.104  1.00  0.00     0.037 A   
ATOM     25  C15 UNL     1       1.231  -2.727  -5.879  1.00  0.00     0.109 A   
ATOM     26  C14 UNL     1      -0.044  -3.200  -6.069  1.00  0.00     0.108 A   
ATOM     27  O2  UNL     1       2.034  -2.955  -6.951  1.00  0.00    -0.316 OA  
ATOM     28  O3  UNL     1      -0.203  -3.788  -7.283  1.00  0.00    -0.316 OA  
ATOM     29  C17 UNL     1       1.124  -3.651  -7.833  1.00  0.00     0.337 C   
ENDBRANCH  20  21
ENDBRANCH  17  20
ENDBRANCH  16  17
BRANCH  16  30
ATOM     30  C18 UNL     1       1.003   2.593  -1.710  1.00  0.00     0.010 C   
ATOM     31  C19 UNL     1      -0.251   3.110  -2.442  1.00  0.00     0.017 C   
ATOM     32  C20 UNL     1       1.211   3.450  -0.440  1.00  0.00     0.017 C   
ATOM     33  C21 UNL     1       2.231   2.836  -2.618  1.00  0.00     0.017 C   
ENDBRANCH  16  30
ENDBRANCH   3  16
TORSDOF 8
