REMARK SMILES Cc1noc(C)c1CCn1cc([C@@H]([NH2+]Cc2ccc3c(c2)OCO3)C2CCCC2)nn1
REMARK SMILES IDX 10 1 11 2 12 3 30 4 31 5 9 7 8 8 7 9 2 10 3 11 4 12 5 13
REMARK SMILES IDX 1 14 6 15 13 16 14 17 15 20 16 21 17 22 21 23 18 24 20 25
REMARK SMILES IDX 19 26 22 27 24 28 23 29 25 30 26 31 29 32 27 33 28 34
REMARK H PARENT 11 6 14 18 14 19
ROOT
ATOM     1   N2  UNL     1      -1.255  -2.478  -2.182  1.00  0.00    -0.212 N   
ATOM     2   C8  UNL     1      -0.233  -1.571  -2.284  1.00  0.00     0.045 A   
ATOM     3   C9  UNL     1      -0.584  -0.577  -1.395  1.00  0.00     0.127 A   
ATOM     4   N4  UNL     1      -1.844  -0.834  -0.920  1.00  0.00    -0.132 NA  
ATOM     5   N5  UNL     1      -2.249  -1.994  -1.418  1.00  0.00    -0.076 NA  
ATOM     6   H11 UNL     1       0.668  -1.780  -2.842  1.00  0.00     0.083 HD  
ENDROOT
BRANCH   1   7
ATOM     7   C7  UNL     1      -1.177  -3.896  -2.484  1.00  0.00     0.139 C   
BRANCH   7   8
ATOM     8   C6  UNL     1      -0.828  -4.751  -1.248  1.00  0.00     0.061 C   
BRANCH   8   9
ATOM     9   C5  UNL     1       0.243  -4.138  -0.397  1.00  0.00     0.006 A   
ATOM     10  C2  UNL     1       0.084  -3.490   0.862  1.00  0.00     0.071 A   
ATOM     11  N1  UNL     1       1.196  -2.826   1.207  1.00  0.00    -0.134 NA  
ATOM     12  O1  UNL     1       2.150  -3.185   0.273  1.00  0.00    -0.218 OA  
ATOM     13  C3  UNL     1       1.585  -3.983  -0.673  1.00  0.00     0.087 A   
ATOM     14  C1  UNL     1      -1.125  -3.427   1.722  1.00  0.00     0.070 C   
ATOM     15  C4  UNL     1       2.481  -4.431  -1.758  1.00  0.00     0.076 C   
ENDBRANCH   8   9
ENDBRANCH   7   8
ENDBRANCH   1   7
BRANCH   3  16
ATOM     16  C10 UNL     1       0.222   0.543  -0.809  1.00  0.00     0.117 C   
BRANCH  16  17
ATOM     17  N3  UNL     1       0.806   0.093   0.517  1.00  0.00     0.249 N   
ATOM     18  H13 UNL     1       1.697   0.555   0.711  1.00  0.00     0.199 HD  
ATOM     19  H14 UNL     1       1.030  -0.918   0.466  1.00  0.00     0.199 HD  
BRANCH  17  20
ATOM     20  C11 UNL     1      -0.075   0.276   1.708  1.00  0.00     0.164 C   
BRANCH  20  21
ATOM     21  C12 UNL     1      -0.205   1.719   2.110  1.00  0.00    -0.002 A   
ATOM     22  C13 UNL     1      -1.407   2.425   1.867  1.00  0.00     0.012 A   
ATOM     23  C17 UNL     1       0.882   2.388   2.700  1.00  0.00     0.045 A   
ATOM     24  C14 UNL     1      -1.524   3.780   2.196  1.00  0.00     0.037 A   
ATOM     25  C16 UNL     1       0.733   3.723   3.011  1.00  0.00     0.109 A   
ATOM     26  C15 UNL     1      -0.434   4.402   2.764  1.00  0.00     0.108 A   
ATOM     27  O2  UNL     1       1.684   4.513   3.575  1.00  0.00    -0.316 OA  
ATOM     28  O3  UNL     1      -0.365   5.705   3.141  1.00  0.00    -0.316 OA  
ATOM     29  C18 UNL     1       0.969   5.764   3.688  1.00  0.00     0.337 C   
ENDBRANCH  20  21
ENDBRANCH  17  20
ENDBRANCH  16  17
BRANCH  16  30
ATOM     30  C19 UNL     1       1.366   1.040  -1.718  1.00  0.00     0.043 C   
ATOM     31  C20 UNL     1       0.873   1.572  -3.080  1.00  0.00     0.010 C   
ATOM     32  C23 UNL     1       2.165   2.214  -1.136  1.00  0.00     0.010 C   
ATOM     33  C21 UNL     1       1.682   2.833  -3.380  1.00  0.00     0.001 C   
ATOM     34  C22 UNL     1       2.806   2.845  -2.360  1.00  0.00     0.001 C   
ENDBRANCH  16  30
ENDBRANCH   3  16
TORSDOF 8
