REMARK SMILES COc1ccc(Cn2cc([C@@H]([NH2+]Cc3ccc4c(c3)OCO4)C(C)(C)C)nn2)cc1C
REMARK SMILES IDX 8 1 9 2 10 3 27 4 28 5 7 7 6 8 3 9 4 10 30 11 5 12 29 13
REMARK SMILES IDX 31 14 2 15 1 16 11 17 12 18 13 21 14 22 15 23 19 24 16 25
REMARK SMILES IDX 18 26 17 27 20 28 22 29 21 30 23 31 24 32 25 33 26 34
REMARK H PARENT 9 6 12 19 12 20
ROOT
ATOM     1   N1  UNL     1       0.713  -1.142  -2.498  1.00  0.00    -0.208 N   
ATOM     2   C7  UNL     1       1.822  -0.815  -1.765  1.00  0.00     0.046 A   
ATOM     3   C8  UNL     1       1.479  -1.152  -0.474  1.00  0.00     0.127 A   
ATOM     4   N3  UNL     1       0.204  -1.659  -0.466  1.00  0.00    -0.132 NA  
ATOM     5   N4  UNL     1      -0.253  -1.649  -1.707  1.00  0.00    -0.076 NA  
ATOM     6   H8  UNL     1       2.701  -0.372  -2.213  1.00  0.00     0.083 HD  
ENDROOT
BRANCH   1   7
ATOM     7   C6  UNL     1       0.495  -0.971  -3.925  1.00  0.00     0.169 C   
BRANCH   7   8
ATOM     8   C5  UNL     1       0.140   0.460  -4.239  1.00  0.00    -0.028 A   
ATOM     9   C2  UNL     1      -0.524   3.151  -4.762  1.00  0.00     0.077 A   
ATOM     10  C3  UNL     1      -1.501   2.252  -4.328  1.00  0.00     0.034 A   
ATOM     11  C23 UNL     1       0.799   2.706  -4.932  1.00  0.00    -0.020 A   
ATOM     12  C4  UNL     1      -1.172   0.919  -4.067  1.00  0.00     0.008 A   
ATOM     13  C22 UNL     1       1.120   1.363  -4.674  1.00  0.00     0.011 A   
ATOM     14  C24 UNL     1       1.869   3.653  -5.406  1.00  0.00     0.047 C   
BRANCH   9  15
ATOM     15  O1  UNL     1      -0.744   4.476  -5.032  1.00  0.00    -0.349 OA  
ATOM     16  C1  UNL     1      -2.096   4.918  -5.076  1.00  0.00     0.203 C   
ENDBRANCH   9  15
ENDBRANCH   7   8
ENDBRANCH   1   7
BRANCH   3  17
ATOM     17  C9  UNL     1       2.203  -0.966   0.825  1.00  0.00     0.120 C   
BRANCH  17  18
ATOM     18  N2  UNL     1       1.193  -0.590   1.884  1.00  0.00     0.250 N   
ATOM     19  H10 UNL     1       1.535  -0.753   2.833  1.00  0.00     0.199 HD  
ATOM     20  H11 UNL     1       0.387  -1.222   1.758  1.00  0.00     0.199 HD  
BRANCH  18  21
ATOM     21  C10 UNL     1       0.669   0.802   1.796  1.00  0.00     0.164 C   
BRANCH  21  22
ATOM     22  C11 UNL     1      -0.397   1.026   2.830  1.00  0.00    -0.002 A   
ATOM     23  C12 UNL     1      -1.751   0.753   2.523  1.00  0.00     0.012 A   
ATOM     24  C16 UNL     1      -0.051   1.453   4.125  1.00  0.00     0.045 A   
ATOM     25  C13 UNL     1      -2.753   0.918   3.486  1.00  0.00     0.037 A   
ATOM     26  C15 UNL     1      -1.063   1.603   5.050  1.00  0.00     0.109 A   
ATOM     27  C14 UNL     1      -2.376   1.345   4.740  1.00  0.00     0.108 A   
ATOM     28  O2  UNL     1      -0.901   2.006   6.338  1.00  0.00    -0.316 OA  
ATOM     29  O3  UNL     1      -3.207   1.558   5.793  1.00  0.00    -0.316 OA  
ATOM     30  C17 UNL     1      -2.272   2.005   6.798  1.00  0.00     0.337 C   
ENDBRANCH  21  22
ENDBRANCH  18  21
ENDBRANCH  17  18
BRANCH  17  31
ATOM     31  C18 UNL     1       3.038  -2.212   1.283  1.00  0.00     0.010 C   
ATOM     32  C19 UNL     1       2.156  -3.433   1.609  1.00  0.00     0.017 C   
ATOM     33  C20 UNL     1       4.041  -2.617   0.179  1.00  0.00     0.017 C   
ATOM     34  C21 UNL     1       3.871  -1.865   2.539  1.00  0.00     0.017 C   
ENDBRANCH  17  31
ENDBRANCH   3  17
TORSDOF 8
