REMARK SMILES COCc1ccc(Cn2cc([C@@H]([NH2+]Cc3ccc4c(c3)OCO4)C3CCCCC3)nn2)o1
REMARK SMILES IDX 9 1 10 2 11 3 30 4 31 5 8 7 7 8 4 9 5 10 32 11 6 12 3 13
REMARK SMILES IDX 2 14 1 15 12 16 13 17 14 20 15 21 16 22 20 23 17 24 19 25
REMARK SMILES IDX 18 26 21 27 23 28 22 29 24 30 25 31 29 32 26 33 28 34 27 35
REMARK H PARENT 10 6 13 18 13 19
ROOT
ATOM     1   N1  UNL     1       0.094   3.297  -0.306  1.00  0.00    -0.206 N   
ATOM     2   C8  UNL     1      -0.594   2.116  -0.375  1.00  0.00     0.046 A   
ATOM     3   C9  UNL     1      -0.406   1.547   0.863  1.00  0.00     0.127 A   
ATOM     4   N3  UNL     1       0.329   2.400   1.644  1.00  0.00    -0.132 NA  
ATOM     5   N4  UNL     1       0.614   3.473   0.925  1.00  0.00    -0.076 NA  
ATOM     6   H10 UNL     1      -1.081   1.782  -1.281  1.00  0.00     0.083 HD  
ENDROOT
BRANCH   1   7
ATOM     7   C7  UNL     1       0.302   4.286  -1.351  1.00  0.00     0.195 C   
BRANCH   7   8
ATOM     8   C6  UNL     1       0.897   3.659  -2.558  1.00  0.00     0.078 A   
ATOM     9   C3  UNL     1       2.479   2.555  -3.613  1.00  0.00     0.085 A   
ATOM     10  C4  UNL     1       1.489   2.802  -4.540  1.00  0.00     0.034 A   
ATOM     11  O4  UNL     1       2.123   3.081  -2.405  1.00  0.00    -0.315 OA  
ATOM     12  C5  UNL     1       0.472   3.520  -3.862  1.00  0.00     0.033 A   
BRANCH   9  13
ATOM     13  C2  UNL     1       3.798   1.881  -3.689  1.00  0.00     0.221 C   
BRANCH  13  14
ATOM     14  O1  UNL     1       3.682   0.640  -2.981  1.00  0.00    -0.378 OA  
ATOM     15  C1  UNL     1       4.862  -0.141  -3.130  1.00  0.00     0.195 C   
ENDBRANCH  13  14
ENDBRANCH   9  13
ENDBRANCH   7   8
ENDBRANCH   1   7
BRANCH   3  16
ATOM     16  C10 UNL     1      -0.769   0.196   1.382  1.00  0.00     0.117 C   
BRANCH  16  17
ATOM     17  N2  UNL     1       0.398  -0.392   2.142  1.00  0.00     0.249 N   
ATOM     18  H12 UNL     1       0.105  -1.191   2.707  1.00  0.00     0.199 HD  
ATOM     19  H13 UNL     1       0.710   0.343   2.792  1.00  0.00     0.199 HD  
BRANCH  17  20
ATOM     20  C11 UNL     1       1.589  -0.773   1.318  1.00  0.00     0.164 C   
BRANCH  20  21
ATOM     21  C12 UNL     1       1.293  -1.829   0.287  1.00  0.00    -0.002 A   
ATOM     22  C13 UNL     1       1.513  -1.552  -1.083  1.00  0.00     0.012 A   
ATOM     23  C17 UNL     1       0.784  -3.084   0.663  1.00  0.00     0.045 A   
ATOM     24  C14 UNL     1       1.237  -2.510  -2.066  1.00  0.00     0.037 A   
ATOM     25  C16 UNL     1       0.512  -4.004  -0.332  1.00  0.00     0.109 A   
ATOM     26  C15 UNL     1       0.742  -3.729  -1.656  1.00  0.00     0.108 A   
ATOM     27  O2  UNL     1       0.014  -5.255  -0.140  1.00  0.00    -0.316 OA  
ATOM     28  O3  UNL     1       0.429  -4.776  -2.465  1.00  0.00    -0.316 OA  
ATOM     29  C18 UNL     1      -0.082  -5.723  -1.505  1.00  0.00     0.337 C   
ENDBRANCH  20  21
ENDBRANCH  17  20
ENDBRANCH  16  17
BRANCH  16  30
ATOM     30  C19 UNL     1      -2.044   0.215   2.270  1.00  0.00     0.043 C   
ATOM     31  C20 UNL     1      -2.619  -1.208   2.445  1.00  0.00     0.010 C   
ATOM     32  C24 UNL     1      -1.853   0.876   3.650  1.00  0.00     0.010 C   
ATOM     33  C21 UNL     1      -3.912  -1.202   3.260  1.00  0.00     0.001 C   
ATOM     34  C23 UNL     1      -3.148   0.876   4.463  1.00  0.00     0.001 C   
ATOM     35  C22 UNL     1      -3.719  -0.530   4.613  1.00  0.00     0.000 C   
ENDBRANCH  16  30
ENDBRANCH   3  16
TORSDOF 9
