REMARK SMILES CN(C)c1ccc(Cn2cc([C@@H]([NH2+]Cc3ccc4c(c3)OCO4)C3CCCC3)nn2)cn1
REMARK SMILES IDX 9 1 10 2 11 3 29 4 30 5 8 7 7 8 4 9 5 10 32 11 6 12 31 13
REMARK SMILES IDX 2 14 1 15 3 16 12 17 13 18 14 21 15 22 16 23 20 24 17 25
REMARK SMILES IDX 19 26 18 27 21 28 23 29 22 30 24 31 25 32 28 33 26 34 27 35
REMARK H PARENT 10 6 13 19 13 20
ROOT
ATOM     1   N2  UNL     1      -0.139  -2.585   0.740  1.00  0.00    -0.208 N   
ATOM     2   C8  UNL     1      -0.557  -1.611  -0.127  1.00  0.00     0.046 A   
ATOM     3   C9  UNL     1       0.501  -1.467  -0.996  1.00  0.00     0.127 A   
ATOM     4   N4  UNL     1       1.473  -2.379  -0.680  1.00  0.00    -0.132 NA  
ATOM     5   N5  UNL     1       1.071  -3.056   0.383  1.00  0.00    -0.076 NA  
ATOM     6   H11 UNL     1      -1.487  -1.077   0.006  1.00  0.00     0.083 HD  
ENDROOT
BRANCH   1   7
ATOM     7   C7  UNL     1      -0.721  -2.940   2.026  1.00  0.00     0.171 C   
BRANCH   7   8
ATOM     8   C6  UNL     1      -0.544  -1.798   2.988  1.00  0.00    -0.010 A   
ATOM     9   C3  UNL     1      -0.079   0.416   4.611  1.00  0.00     0.119 A   
ATOM     10  C4  UNL     1      -1.382   0.071   4.250  1.00  0.00     0.045 A   
ATOM     11  N6  UNL     1       0.967  -0.313   4.160  1.00  0.00    -0.241 NA  
ATOM     12  C5  UNL     1      -1.619  -1.038   3.437  1.00  0.00     0.010 A   
ATOM     13  C24 UNL     1       0.721  -1.402   3.400  1.00  0.00     0.118 A   
BRANCH   9  14
ATOM     14  N1  UNL     1       0.151   1.555   5.408  1.00  0.00    -0.322 N   
ATOM     15  C1  UNL     1      -0.537   1.497   6.700  1.00  0.00     0.131 C   
ATOM     16  C2  UNL     1       1.568   1.909   5.513  1.00  0.00     0.131 C   
ENDBRANCH   9  14
ENDBRANCH   7   8
ENDBRANCH   1   7
BRANCH   3  17
ATOM     17  C10 UNL     1       0.757  -0.451  -2.058  1.00  0.00     0.117 C   
BRANCH  17  18
ATOM     18  N3  UNL     1       2.128   0.167  -1.860  1.00  0.00     0.249 N   
ATOM     19  H13 UNL     1       2.348   0.796  -2.636  1.00  0.00     0.199 HD  
ATOM     20  H14 UNL     1       2.805  -0.609  -1.890  1.00  0.00     0.199 HD  
BRANCH  18  21
ATOM     21  C11 UNL     1       2.353   0.898  -0.571  1.00  0.00     0.164 C   
BRANCH  21  22
ATOM     22  C12 UNL     1       1.399   2.039  -0.357  1.00  0.00    -0.002 A   
ATOM     23  C13 UNL     1       1.444   3.186  -1.187  1.00  0.00     0.012 A   
ATOM     24  C17 UNL     1       0.433   1.962   0.663  1.00  0.00     0.045 A   
ATOM     25  C14 UNL     1       0.532   4.233  -1.014  1.00  0.00     0.037 A   
ATOM     26  C16 UNL     1      -0.455   3.008   0.802  1.00  0.00     0.109 A   
ATOM     27  C15 UNL     1      -0.406   4.112  -0.012  1.00  0.00     0.108 A   
ATOM     28  O1  UNL     1      -1.458   3.080   1.715  1.00  0.00    -0.316 OA  
ATOM     29  O2  UNL     1      -1.365   5.024   0.295  1.00  0.00    -0.316 OA  
ATOM     30  C18 UNL     1      -1.987   4.394   1.436  1.00  0.00     0.337 C   
ENDBRANCH  21  22
ENDBRANCH  18  21
ENDBRANCH  17  18
BRANCH  17  31
ATOM     31  C19 UNL     1       0.697  -1.069  -3.469  1.00  0.00     0.043 C   
ATOM     32  C20 UNL     1       0.962  -0.079  -4.609  1.00  0.00     0.010 C   
ATOM     33  C23 UNL     1      -0.693  -1.599  -3.833  1.00  0.00     0.010 C   
ATOM     34  C21 UNL     1       0.335  -0.715  -5.847  1.00  0.00     0.001 C   
ATOM     35  C22 UNL     1      -0.623  -1.791  -5.341  1.00  0.00     0.001 C   
ENDBRANCH  17  31
ENDBRANCH   3  17
TORSDOF 8
