REMARK SMILES Oc1ccc(-n2cc([C@@H]([NH2+]Cc3ccc4c(c3)OCO4)C3CCCC3)nn2)cc1Cl
REMARK SMILES IDX 6 1 7 2 8 3 26 4 27 5 5 6 2 7 3 8 29 9 4 10 28 11 30 12 1 13
REMARK SMILES IDX 9 15 10 16 11 19 12 20 13 21 17 22 14 23 16 24 15 25 18 26
REMARK SMILES IDX 20 27 19 28 21 29 22 30 25 31 23 32 24 33
REMARK H PARENT 1 14 10 17 10 18
ROOT
ATOM     1   N1  UNL     1       1.645   2.339   1.394  1.00  0.00    -0.181 N   
ATOM     2   C5  UNL     1       1.808   1.637   0.214  1.00  0.00     0.135 A   
ATOM     3   C6  UNL     1       0.661   0.886   0.083  1.00  0.00     0.127 A   
ATOM     4   N3  UNL     1      -0.145   1.111   1.163  1.00  0.00    -0.131 NA  
ATOM     5   N4  UNL     1       0.463   1.978   1.955  1.00  0.00    -0.071 NA  
ENDROOT
BRANCH   1   6
ATOM     6   C4  UNL     1       2.510   3.281   2.004  1.00  0.00     0.059 A   
ATOM     7   C1  UNL     1       4.190   5.146   3.235  1.00  0.00     0.090 A   
ATOM     8   C2  UNL     1       4.568   4.566   2.029  1.00  0.00     0.037 A   
ATOM     9   C22 UNL     1       2.979   4.802   3.834  1.00  0.00     0.072 A   
ATOM     10  C3  UNL     1       3.731   3.633   1.409  1.00  0.00     0.029 A   
ATOM     11  C21 UNL     1       2.136   3.872   3.224  1.00  0.00     0.049 A   
ATOM     12  CL1 UNL     1       2.511   5.518   5.329  1.00  0.00    -0.081 Cl  
BRANCH   7  13
ATOM     13  O1  UNL     1       5.050   6.051   3.790  1.00  0.00    -0.359 OA  
ATOM     14  H1  UNL     1       4.653   6.365   4.625  1.00  0.00     0.218 HD  
ENDBRANCH   7  13
ENDBRANCH   1   6
BRANCH   3  15
ATOM     15  C7  UNL     1       0.227  -0.088  -0.967  1.00  0.00     0.117 C   
BRANCH  15  16
ATOM     16  N2  UNL     1      -0.606  -1.179  -0.337  1.00  0.00     0.249 N   
ATOM     17  H6  UNL     1      -1.145  -1.701  -1.034  1.00  0.00     0.199 HD  
ATOM     18  H7  UNL     1      -1.299  -0.715   0.271  1.00  0.00     0.199 HD  
BRANCH  16  19
ATOM     19  C8  UNL     1       0.143  -2.153   0.506  1.00  0.00     0.164 C   
BRANCH  19  20
ATOM     20  C9  UNL     1      -0.798  -3.164   1.097  1.00  0.00    -0.002 A   
ATOM     21  C10 UNL     1      -1.026  -4.400   0.447  1.00  0.00     0.012 A   
ATOM     22  C14 UNL     1      -1.501  -2.861   2.277  1.00  0.00     0.045 A   
ATOM     23  C11 UNL     1      -1.933  -5.329   0.968  1.00  0.00     0.037 A   
ATOM     24  C13 UNL     1      -2.389  -3.799   2.763  1.00  0.00     0.109 A   
ATOM     25  C12 UNL     1      -2.599  -4.998   2.128  1.00  0.00     0.108 A   
ATOM     26  O2  UNL     1      -3.145  -3.665   3.884  1.00  0.00    -0.316 OA  
ATOM     27  O3  UNL     1      -3.512  -5.771   2.770  1.00  0.00    -0.316 OA  
ATOM     28  C15 UNL     1      -3.840  -4.933   3.898  1.00  0.00     0.337 C   
ENDBRANCH  19  20
ENDBRANCH  16  19
ENDBRANCH  15  16
BRANCH  15  29
ATOM     29  C16 UNL     1      -0.614   0.586  -2.070  1.00  0.00     0.043 C   
ATOM     30  C17 UNL     1      -1.070  -0.367  -3.186  1.00  0.00     0.010 C   
ATOM     31  C20 UNL     1       0.142   1.669  -2.846  1.00  0.00     0.010 C   
ATOM     32  C18 UNL     1      -1.210   0.487  -4.447  1.00  0.00     0.001 C   
ATOM     33  C19 UNL     1      -0.726   1.882  -4.075  1.00  0.00     0.001 C   
ENDBRANCH  15  29
ENDBRANCH   3  15
TORSDOF 7
