REMARK SMILES CC(C)C[C@H]([NH2+]Cc1ccc2c(c1)OCO2)c1cn(Cc2csc(C3CC3)n2)nn1
REMARK SMILES IDX 17 1 18 2 19 3 29 4 30 5 5 7 4 8 2 9 1 10 3 11 6 12 7 15
REMARK SMILES IDX 8 16 9 17 13 18 10 19 12 20 11 21 14 22 16 23 15 24 20 25
REMARK SMILES IDX 21 26 22 27 28 28 23 29 24 30 25 31 26 32 27 33
REMARK H PARENT 18 6 6 13 6 14
ROOT
ATOM     1   C14 UNL     1      -1.773  -0.105   0.447  1.00  0.00     0.127 A   
ATOM     2   C15 UNL     1      -1.488  -1.445   0.320  1.00  0.00     0.046 A   
ATOM     3   N2  UNL     1      -2.588  -1.957  -0.313  1.00  0.00    -0.206 N   
ATOM     4   N4  UNL     1      -3.515  -0.999  -0.516  1.00  0.00    -0.076 NA  
ATOM     5   N5  UNL     1      -3.027   0.141  -0.051  1.00  0.00    -0.132 NA  
ATOM     6   H20 UNL     1      -0.621  -2.051   0.546  1.00  0.00     0.083 HD  
ENDROOT
BRANCH   1   7
ATOM     7   C5  UNL     1      -0.925   1.028   0.920  1.00  0.00     0.114 C   
BRANCH   7   8
ATOM     8   C4  UNL     1      -1.322   1.451   2.349  1.00  0.00     0.064 C   
BRANCH   8   9
ATOM     9   C2  UNL     1      -0.495   2.591   2.982  1.00  0.00    -0.012 C   
ATOM     10  C1  UNL     1       1.002   2.285   3.015  1.00  0.00     0.007 C   
ATOM     11  C3  UNL     1      -0.998   2.861   4.404  1.00  0.00     0.007 C   
ENDBRANCH   8   9
ENDBRANCH   7   8
BRANCH   7  12
ATOM     12  N1  UNL     1      -1.061   2.216  -0.004  1.00  0.00     0.249 N   
ATOM     13  H11 UNL     1      -2.057   2.476  -0.002  1.00  0.00     0.199 HD  
ATOM     14  H12 UNL     1      -0.532   3.011   0.361  1.00  0.00     0.199 HD  
BRANCH  12  15
ATOM     15  C6  UNL     1      -0.667   1.998  -1.431  1.00  0.00     0.164 C   
BRANCH  15  16
ATOM     16  C7  UNL     1       0.771   1.591  -1.595  1.00  0.00    -0.002 A   
ATOM     17  C8  UNL     1       1.097   0.261  -1.958  1.00  0.00     0.012 A   
ATOM     18  C12 UNL     1       1.803   2.515  -1.357  1.00  0.00     0.045 A   
ATOM     19  C9  UNL     1       2.429  -0.147  -2.073  1.00  0.00     0.037 A   
ATOM     20  C11 UNL     1       3.106   2.079  -1.480  1.00  0.00     0.109 A   
ATOM     21  C10 UNL     1       3.411   0.786  -1.827  1.00  0.00     0.108 A   
ATOM     22  O1  UNL     1       4.214   2.839  -1.278  1.00  0.00    -0.316 OA  
ATOM     23  O2  UNL     1       4.750   0.569  -1.889  1.00  0.00    -0.316 OA  
ATOM     24  C13 UNL     1       5.259   1.881  -1.566  1.00  0.00     0.337 C   
ENDBRANCH  15  16
ENDBRANCH  12  15
ENDBRANCH   7  12
ENDBRANCH   1   7
BRANCH   3  25
ATOM     25  C16 UNL     1      -2.795  -3.312  -0.790  1.00  0.00     0.190 C   
BRANCH  25  26
ATOM     26  C17 UNL     1      -2.113  -3.491  -2.107  1.00  0.00     0.067 A   
ATOM     27  C18 UNL     1      -2.725  -3.695  -3.331  1.00  0.00     0.073 A   
ATOM     28  N3  UNL     1      -0.721  -3.465  -2.154  1.00  0.00    -0.248 NA  
ATOM     29  S1  UNL     1      -1.544  -3.876  -4.560  1.00  0.00    -0.080 S   
ATOM     30  C19 UNL     1      -0.318  -3.687  -3.385  1.00  0.00     0.081 A   
BRANCH  30  31
ATOM     31  C20 UNL     1       1.199  -3.755  -3.755  1.00  0.00     0.045 C   
ATOM     32  C21 UNL     1       1.839  -5.106  -3.946  1.00  0.00     0.011 C   
ATOM     33  C22 UNL     1       2.185  -4.280  -2.743  1.00  0.00     0.011 C   
ENDBRANCH  30  31
ENDBRANCH  25  26
ENDBRANCH   3  25
TORSDOF 9
