REMARK SMILES CC(C)[C@H]([NH2+]Cc1ccc2c(c1)OCO2)c1cn(C[C@H](O)Cc2ccccc2)nn1
REMARK SMILES IDX 16 1 17 2 18 3 29 4 30 5 4 7 2 8 1 9 3 10 5 11 6 14 7 15
REMARK SMILES IDX 8 16 12 17 9 18 11 19 10 20 13 21 15 22 14 23 19 24 20 25
REMARK SMILES IDX 21 26 22 28 23 29 24 30 28 31 25 32 27 33 26 34
REMARK H PARENT 17 6 5 12 5 13 21 27
ROOT
ATOM     1   C13 UNL     1       1.124   0.367  -1.365  1.00  0.00     0.127 A   
ATOM     2   C14 UNL     1       1.008   1.682  -1.756  1.00  0.00     0.045 A   
ATOM     3   N2  UNL     1      -0.255   1.762  -2.269  1.00  0.00    -0.210 N   
ATOM     4   N3  UNL     1      -0.877   0.571  -2.208  1.00  0.00    -0.076 NA  
ATOM     5   N4  UNL     1      -0.043  -0.293  -1.653  1.00  0.00    -0.132 NA  
ATOM     6   H18 UNL     1       1.671   2.535  -1.710  1.00  0.00     0.083 HD  
ENDROOT
BRANCH   1   7
ATOM     7   C4  UNL     1       2.222  -0.359  -0.661  1.00  0.00     0.117 C   
BRANCH   7   8
ATOM     8   C2  UNL     1       3.240  -1.049  -1.604  1.00  0.00     0.037 C   
ATOM     9   C1  UNL     1       2.627  -2.107  -2.528  1.00  0.00     0.014 C   
ATOM     10  C3  UNL     1       4.023  -0.027  -2.436  1.00  0.00     0.014 C   
ENDBRANCH   7   8
BRANCH   7  11
ATOM     11  N1  UNL     1       1.643  -1.401   0.265  1.00  0.00     0.249 N   
ATOM     12  H9  UNL     1       2.356  -2.064   0.581  1.00  0.00     0.199 HD  
ATOM     13  H10 UNL     1       0.956  -1.938  -0.282  1.00  0.00     0.199 HD  
BRANCH  11  14
ATOM     14  C5  UNL     1       0.917  -0.851   1.443  1.00  0.00     0.164 C   
BRANCH  14  15
ATOM     15  C6  UNL     1       0.392  -1.958   2.311  1.00  0.00    -0.002 A   
ATOM     16  C7  UNL     1       1.139  -2.415   3.423  1.00  0.00     0.012 A   
ATOM     17  C11 UNL     1      -0.831  -2.575   1.995  1.00  0.00     0.045 A   
ATOM     18  C8  UNL     1       0.670  -3.467   4.217  1.00  0.00     0.037 A   
ATOM     19  C10 UNL     1      -1.264  -3.608   2.801  1.00  0.00     0.109 A   
ATOM     20  C9  UNL     1      -0.534  -4.043   3.879  1.00  0.00     0.108 A   
ATOM     21  O1  UNL     1      -2.420  -4.303   2.642  1.00  0.00    -0.316 OA  
ATOM     22  O2  UNL     1      -1.138  -5.069   4.533  1.00  0.00    -0.316 OA  
ATOM     23  C12 UNL     1      -2.346  -5.219   3.757  1.00  0.00     0.337 C   
ENDBRANCH  14  15
ENDBRANCH  11  14
ENDBRANCH   7  11
ENDBRANCH   1   7
BRANCH   3  24
ATOM     24  C15 UNL     1      -0.903   2.899  -2.876  1.00  0.00     0.166 C   
BRANCH  24  25
ATOM     25  C16 UNL     1      -2.135   3.407  -2.119  1.00  0.00     0.138 C   
BRANCH  25  26
ATOM     26  O3  UNL     1      -2.837   4.285  -3.013  1.00  0.00    -0.391 OA  
ATOM     27  H22 UNL     1      -3.700   4.498  -2.614  1.00  0.00     0.211 HD  
ENDBRANCH  25  26
BRANCH  25  28
ATOM     28  C17 UNL     1      -1.788   4.209  -0.851  1.00  0.00     0.069 C   
BRANCH  28  29
ATOM     29  C18 UNL     1      -1.343   3.418   0.356  1.00  0.00    -0.045 A   
ATOM     30  C19 UNL     1      -2.157   2.417   0.905  1.00  0.00     0.004 A   
ATOM     31  C23 UNL     1      -0.152   3.753   1.018  1.00  0.00     0.004 A   
ATOM     32  C20 UNL     1      -1.794   1.775   2.091  1.00  0.00     0.000 A   
ATOM     33  C22 UNL     1       0.213   3.107   2.202  1.00  0.00     0.000 A   
ATOM     34  C21 UNL     1      -0.613   2.124   2.743  1.00  0.00     0.000 A   
ENDBRANCH  28  29
ENDBRANCH  25  28
ENDBRANCH  24  25
ENDBRANCH   3  24
TORSDOF 10
