REMARK SMILES CC(C)[C@H]([NH2+]Cc1ccc2c(c1)OCO2)c1cn(C[C@@H](O)Cc2ccccc2)nn1
REMARK SMILES IDX 16 1 17 2 18 3 29 4 30 5 4 7 2 8 1 9 3 10 5 11 6 14 7 15
REMARK SMILES IDX 8 16 12 17 9 18 11 19 10 20 13 21 15 22 14 23 19 24 20 25
REMARK SMILES IDX 21 26 22 28 23 29 24 30 28 31 25 32 27 33 26 34
REMARK H PARENT 17 6 5 12 5 13 21 27
ROOT
ATOM     1   C13 UNL     1       0.096  -0.368  -0.601  1.00  0.00     0.127 A   
ATOM     2   C14 UNL     1      -1.268  -0.547  -0.573  1.00  0.00     0.045 A   
ATOM     3   N2  UNL     1      -1.758   0.545  -1.234  1.00  0.00    -0.210 N   
ATOM     4   N3  UNL     1      -0.757   1.307  -1.712  1.00  0.00    -0.076 NA  
ATOM     5   N4  UNL     1       0.385   0.766  -1.319  1.00  0.00    -0.132 NA  
ATOM     6   H18 UNL     1      -1.917  -1.288  -0.127  1.00  0.00     0.083 HD  
ENDROOT
BRANCH   1   7
ATOM     7   C4  UNL     1       1.211  -1.186  -0.038  1.00  0.00     0.117 C   
BRANCH   7   8
ATOM     8   C2  UNL     1       1.601  -0.807   1.417  1.00  0.00     0.037 C   
ATOM     9   C1  UNL     1       2.051   0.648   1.590  1.00  0.00     0.014 C   
ATOM     10  C3  UNL     1       0.470  -1.118   2.404  1.00  0.00     0.014 C   
ENDBRANCH   7   8
BRANCH   7  11
ATOM     11  N1  UNL     1       2.442  -1.046  -0.910  1.00  0.00     0.249 N   
ATOM     12  H9  UNL     1       2.533  -0.040  -1.112  1.00  0.00     0.199 HD  
ATOM     13  H10 UNL     1       3.281  -1.333  -0.398  1.00  0.00     0.199 HD  
BRANCH  11  14
ATOM     14  C5  UNL     1       2.398  -1.753  -2.224  1.00  0.00     0.164 C   
BRANCH  14  15
ATOM     15  C6  UNL     1       2.515  -3.246  -2.083  1.00  0.00    -0.002 A   
ATOM     16  C7  UNL     1       3.763  -3.841  -1.778  1.00  0.00     0.012 A   
ATOM     17  C11 UNL     1       1.377  -4.059  -2.223  1.00  0.00     0.045 A   
ATOM     18  C8  UNL     1       3.877  -5.226  -1.609  1.00  0.00     0.037 A   
ATOM     19  C10 UNL     1       1.523  -5.419  -2.049  1.00  0.00     0.109 A   
ATOM     20  C9  UNL     1       2.737  -5.987  -1.750  1.00  0.00     0.108 A   
ATOM     21  O1  UNL     1       0.527  -6.340  -2.141  1.00  0.00    -0.316 OA  
ATOM     22  O2  UNL     1       2.660  -7.337  -1.620  1.00  0.00    -0.316 OA  
ATOM     23  C12 UNL     1       1.262  -7.562  -1.905  1.00  0.00     0.337 C   
ENDBRANCH  14  15
ENDBRANCH  11  14
ENDBRANCH   7  11
ENDBRANCH   1   7
BRANCH   3  24
ATOM     24  C15 UNL     1      -3.140   0.913  -1.459  1.00  0.00     0.166 C   
BRANCH  24  25
ATOM     25  C16 UNL     1      -3.815   1.541  -0.233  1.00  0.00     0.138 C   
BRANCH  25  26
ATOM     26  O3  UNL     1      -3.936   0.541   0.789  1.00  0.00    -0.391 OA  
ATOM     27  H22 UNL     1      -4.487   0.931   1.497  1.00  0.00     0.211 HD  
ENDBRANCH  25  26
BRANCH  25  28
ATOM     28  C17 UNL     1      -3.060   2.771   0.302  1.00  0.00     0.069 C   
BRANCH  28  29
ATOM     29  C18 UNL     1      -3.875   3.532   1.322  1.00  0.00    -0.045 A   
ATOM     30  C19 UNL     1      -4.872   4.427   0.909  1.00  0.00     0.004 A   
ATOM     31  C23 UNL     1      -3.662   3.333   2.695  1.00  0.00     0.004 A   
ATOM     32  C20 UNL     1      -5.644   5.107   1.853  1.00  0.00     0.000 A   
ATOM     33  C22 UNL     1      -4.437   4.013   3.636  1.00  0.00     0.000 A   
ATOM     34  C21 UNL     1      -5.428   4.898   3.215  1.00  0.00     0.000 A   
ENDBRANCH  28  29
ENDBRANCH  25  28
ENDBRANCH  24  25
ENDBRANCH   3  24
TORSDOF 10
