REMARK SMILES c1cc(-n2cc([C@@H]([NH2+]Cc3ccc4c(c3)OCO4)C3CCCCC3)nn2)c2nccn2c1
REMARK SMILES IDX 7 1 6 2 4 3 5 4 26 5 25 6 3 7 1 8 2 9 32 10 31 11 27 12
REMARK SMILES IDX 30 13 28 14 29 15 8 16 9 19 10 20 11 21 15 22 12 23 14 24
REMARK SMILES IDX 13 25 16 26 18 27 17 28 19 29 20 30 24 31 21 32 23 33 22 34
REMARK H PARENT 8 17 8 18
ROOT
ATOM     1   C6  UNL     1      -0.853   0.331   1.630  1.00  0.00     0.117 C   
ENDROOT
BRANCH   1   2
ATOM     2   C5  UNL     1      -1.177   1.565   0.847  1.00  0.00     0.127 A   
ATOM     3   N1  UNL     1      -1.651   3.105  -0.682  1.00  0.00    -0.177 N   
ATOM     4   C4  UNL     1      -1.450   1.737  -0.487  1.00  0.00     0.135 A   
ATOM     5   N4  UNL     1      -1.437   3.698   0.545  1.00  0.00    -0.071 NA  
ATOM     6   N3  UNL     1      -1.161   2.780   1.456  1.00  0.00    -0.131 NA  
BRANCH   3   7
ATOM     7   C3  UNL     1      -1.989   3.781  -1.877  1.00  0.00     0.098 A   
ATOM     8   C1  UNL     1      -2.534   5.869  -3.087  1.00  0.00     0.018 A   
ATOM     9   C2  UNL     1      -2.177   5.127  -1.889  1.00  0.00     0.031 A   
ATOM     10  C24 UNL     1      -2.687   5.201  -4.239  1.00  0.00     0.082 A   
ATOM     11  N6  UNL     1      -2.494   3.826  -4.251  1.00  0.00    -0.265 N   
ATOM     12  C21 UNL     1      -2.149   3.077  -3.125  1.00  0.00     0.152 A   
ATOM     13  C23 UNL     1      -2.590   2.951  -5.301  1.00  0.00     0.102 A   
ATOM     14  N5  UNL     1      -2.020   1.801  -3.441  1.00  0.00    -0.237 NA  
ATOM     15  C22 UNL     1      -2.295   1.715  -4.781  1.00  0.00     0.129 A   
ENDBRANCH   3   7
ENDBRANCH   1   2
BRANCH   1  16
ATOM     16  N2  UNL     1       0.316   0.642   2.546  1.00  0.00     0.249 N   
ATOM     17  H5  UNL     1       0.430  -0.079   3.260  1.00  0.00     0.199 HD  
ATOM     18  H6  UNL     1       0.073   1.516   3.035  1.00  0.00     0.199 HD  
BRANCH  16  19
ATOM     19  C7  UNL     1       1.638   0.844   1.880  1.00  0.00     0.164 C   
BRANCH  19  20
ATOM     20  C8  UNL     1       2.194  -0.433   1.313  1.00  0.00    -0.002 A   
ATOM     21  C9  UNL     1       2.733  -1.423   2.170  1.00  0.00     0.012 A   
ATOM     22  C13 UNL     1       2.143  -0.671  -0.072  1.00  0.00     0.045 A   
ATOM     23  C10 UNL     1       3.209  -2.635   1.659  1.00  0.00     0.037 A   
ATOM     24  C12 UNL     1       2.619  -1.877  -0.542  1.00  0.00     0.109 A   
ATOM     25  C11 UNL     1       3.135  -2.832   0.298  1.00  0.00     0.108 A   
ATOM     26  O1  UNL     1       2.632  -2.268  -1.843  1.00  0.00    -0.316 OA  
ATOM     27  O2  UNL     1       3.543  -3.943  -0.369  1.00  0.00    -0.316 OA  
ATOM     28  C14 UNL     1       3.246  -3.572  -1.732  1.00  0.00     0.337 C   
ENDBRANCH  19  20
ENDBRANCH  16  19
ENDBRANCH   1  16
BRANCH   1  29
ATOM     29  C15 UNL     1      -2.059  -0.163   2.489  1.00  0.00     0.043 C   
ATOM     30  C16 UNL     1      -1.766  -1.441   3.308  1.00  0.00     0.010 C   
ATOM     31  C20 UNL     1      -3.321  -0.440   1.637  1.00  0.00     0.010 C   
ATOM     32  C17 UNL     1      -1.581  -2.678   2.430  1.00  0.00     0.001 C   
ATOM     33  C19 UNL     1      -3.163  -1.661   0.730  1.00  0.00     0.001 C   
ATOM     34  C18 UNL     1      -2.788  -2.908   1.526  1.00  0.00     0.000 C   
ENDBRANCH   1  29
TORSDOF 6
