REMARK SMILES c1ccc2oc(Cn3cc([C@@H]([NH2+]Cc4ccc5c(c4)OCO5)C4CCCCC4)nn3)nc2c1
REMARK SMILES IDX 11 1 10 2 8 3 9 4 30 5 29 6 7 8 6 9 1 10 2 11 33 12 3 13
REMARK SMILES IDX 32 14 4 15 31 16 5 17 12 18 13 21 14 22 15 23 19 24 16 25
REMARK SMILES IDX 18 26 17 27 20 28 22 29 21 30 23 31 24 32 28 33 25 34 27 35
REMARK SMILES IDX 26 36
REMARK H PARENT 9 7 12 19 12 20
ROOT
ATOM     1   C9  UNL     1       0.481  -0.961   0.757  1.00  0.00     0.117 C   
ENDROOT
BRANCH   1   2
ATOM     2   C8  UNL     1      -0.905  -1.123   0.228  1.00  0.00     0.127 A   
ATOM     3   N1  UNL     1      -2.716  -1.181  -0.953  1.00  0.00    -0.204 N   
ATOM     4   C7  UNL     1      -1.357  -1.301  -1.060  1.00  0.00     0.046 A   
ATOM     5   N4  UNL     1      -3.081  -1.014   0.334  1.00  0.00    -0.075 NA  
ATOM     6   N3  UNL     1      -1.980  -0.972   1.066  1.00  0.00    -0.132 NA  
ATOM     7   H6  UNL     1      -0.861  -1.416  -2.015  1.00  0.00     0.083 HD  
BRANCH   3   8
ATOM     8   C6  UNL     1      -3.698  -1.156  -2.021  1.00  0.00     0.217 C   
BRANCH   8   9
ATOM     9   C5  UNL     1      -3.635   0.152  -2.721  1.00  0.00     0.168 A   
ATOM     10  C1  UNL     1      -3.294   4.025  -4.902  1.00  0.00     0.002 A   
ATOM     11  C2  UNL     1      -4.690   3.905  -4.888  1.00  0.00     0.003 A   
ATOM     12  C25 UNL     1      -2.475   3.048  -4.316  1.00  0.00     0.031 A   
ATOM     13  C3  UNL     1      -5.324   2.809  -4.290  1.00  0.00     0.036 A   
ATOM     14  C24 UNL     1      -3.095   1.946  -3.714  1.00  0.00     0.097 A   
ATOM     15  C4  UNL     1      -4.479   1.865  -3.721  1.00  0.00     0.109 A   
ATOM     16  N5  UNL     1      -2.567   0.851  -3.074  1.00  0.00    -0.224 NA  
ATOM     17  O1  UNL     1      -4.833   0.710  -3.083  1.00  0.00    -0.292 OA  
ENDBRANCH   8   9
ENDBRANCH   3   8
ENDBRANCH   1   2
BRANCH   1  18
ATOM     18  N2  UNL     1       0.513   0.112   1.827  1.00  0.00     0.249 N   
ATOM     19  H8  UNL     1       1.427   0.121   2.285  1.00  0.00     0.199 HD  
ATOM     20  H9  UNL     1      -0.187  -0.156   2.530  1.00  0.00     0.199 HD  
BRANCH  18  21
ATOM     21  C10 UNL     1       0.164   1.500   1.389  1.00  0.00     0.164 C   
BRANCH  21  22
ATOM     22  C11 UNL     1       1.107   2.065   0.363  1.00  0.00    -0.002 A   
ATOM     23  C12 UNL     1       2.426   2.435   0.723  1.00  0.00     0.012 A   
ATOM     24  C16 UNL     1       0.684   2.217  -0.970  1.00  0.00     0.045 A   
ATOM     25  C13 UNL     1       3.313   2.946  -0.230  1.00  0.00     0.037 A   
ATOM     26  C15 UNL     1       1.582   2.728  -1.883  1.00  0.00     0.109 A   
ATOM     27  C14 UNL     1       2.860   3.081  -1.524  1.00  0.00     0.108 A   
ATOM     28  O2  UNL     1       1.335   2.942  -3.203  1.00  0.00    -0.316 OA  
ATOM     29  O3  UNL     1       3.579   3.562  -2.572  1.00  0.00    -0.316 OA  
ATOM     30  C17 UNL     1       2.594   3.514  -3.626  1.00  0.00     0.337 C   
ENDBRANCH  21  22
ENDBRANCH  18  21
ENDBRANCH   1  18
BRANCH   1  31
ATOM     31  C18 UNL     1       1.105  -2.259   1.337  1.00  0.00     0.043 C   
ATOM     32  C19 UNL     1       0.329  -2.869   2.522  1.00  0.00     0.010 C   
ATOM     33  C23 UNL     1       1.316  -3.320   0.239  1.00  0.00     0.010 C   
ATOM     34  C20 UNL     1       1.020  -4.123   3.061  1.00  0.00     0.001 C   
ATOM     35  C22 UNL     1       2.008  -4.568   0.784  1.00  0.00     0.001 C   
ATOM     36  C21 UNL     1       1.248  -5.160   1.965  1.00  0.00     0.000 C   
ENDBRANCH   1  31
TORSDOF 7
