REMARK SMILES c1cc2c(cc1C[NH2+][C@H](c1cn(Cc3conc3C3CC3)nn1)C1CCCCC1)OCO2
REMARK SMILES IDX 10 1 11 2 12 3 22 4 23 5 9 7 8 8 7 11 6 12 1 13 2 14 3 15
REMARK SMILES IDX 5 16 4 17 32 18 30 19 31 20 24 21 25 22 29 23 26 24 28 25
REMARK SMILES IDX 27 26 13 27 14 28 15 29 18 30 16 31 17 32 19 33 20 34 21 35
REMARK H PARENT 11 6 8 9 8 10
ROOT
ATOM     1   C9  UNL     1       0.464  -1.588  -0.982  1.00  0.00     0.127 A   
ATOM     2   C10 UNL     1      -0.717  -1.000  -1.381  1.00  0.00     0.046 A   
ATOM     3   N2  UNL     1      -1.586  -2.050  -1.494  1.00  0.00    -0.208 N   
ATOM     4   N4  UNL     1      -0.967  -3.215  -1.222  1.00  0.00    -0.076 NA  
ATOM     5   N5  UNL     1       0.292  -2.946  -0.917  1.00  0.00    -0.132 NA  
ATOM     6   H9  UNL     1      -1.019   0.027  -1.531  1.00  0.00     0.083 HD  
ENDROOT
BRANCH   1   7
ATOM     7   C8  UNL     1       1.757  -0.976  -0.543  1.00  0.00     0.117 C   
BRANCH   7   8
ATOM     8   N1  UNL     1       2.204  -1.604   0.766  1.00  0.00     0.249 N   
ATOM     9   H6  UNL     1       3.082  -1.185   1.078  1.00  0.00     0.199 HD  
ATOM     10  H7  UNL     1       2.386  -2.598   0.572  1.00  0.00     0.199 HD  
BRANCH   8  11
ATOM     11  C7  UNL     1       1.239  -1.553   1.913  1.00  0.00     0.164 C   
BRANCH  11  12
ATOM     12  C6  UNL     1       0.758  -0.169   2.249  1.00  0.00    -0.002 A   
ATOM     13  C1  UNL     1      -0.624   0.134   2.180  1.00  0.00     0.012 A   
ATOM     14  C2  UNL     1      -1.098   1.419   2.465  1.00  0.00     0.037 A   
ATOM     15  C3  UNL     1      -0.176   2.377   2.822  1.00  0.00     0.108 A   
ATOM     16  C5  UNL     1       1.664   0.834   2.633  1.00  0.00     0.045 A   
ATOM     17  C4  UNL     1       1.164   2.091   2.906  1.00  0.00     0.109 A   
ATOM     18  O3  UNL     1      -0.450   3.671   3.132  1.00  0.00    -0.316 OA  
ATOM     19  O2  UNL     1       1.903   3.168   3.279  1.00  0.00    -0.316 OA  
ATOM     20  C24 UNL     1       0.866   4.158   3.471  1.00  0.00     0.337 C   
ENDBRANCH  11  12
ENDBRANCH   8  11
ENDBRANCH   7   8
BRANCH   7  21
ATOM     21  C18 UNL     1       2.887  -1.159  -1.604  1.00  0.00     0.043 C   
ATOM     22  C19 UNL     1       2.523  -0.523  -2.967  1.00  0.00     0.010 C   
ATOM     23  C23 UNL     1       4.257  -0.592  -1.173  1.00  0.00     0.010 C   
ATOM     24  C20 UNL     1       2.509   1.005  -2.920  1.00  0.00     0.001 C   
ATOM     25  C22 UNL     1       4.261   0.934  -1.089  1.00  0.00     0.001 C   
ATOM     26  C21 UNL     1       3.834   1.567  -2.411  1.00  0.00     0.000 C   
ENDBRANCH   7  21
ENDBRANCH   1   7
BRANCH   3  27
ATOM     27  C11 UNL     1      -3.027  -2.001  -1.696  1.00  0.00     0.173 C   
BRANCH  27  28
ATOM     28  C12 UNL     1      -3.684  -1.684  -0.406  1.00  0.00     0.021 A   
ATOM     29  C13 UNL     1      -3.999  -2.554   0.614  1.00  0.00     0.171 A   
ATOM     30  C14 UNL     1      -4.103  -0.433   0.104  1.00  0.00     0.078 A   
ATOM     31  O1  UNL     1      -4.514  -1.870   1.664  1.00  0.00    -0.221 OA  
ATOM     32  N3  UNL     1      -4.560  -0.523   1.353  1.00  0.00    -0.134 NA  
BRANCH  30  33
ATOM     33  C15 UNL     1      -3.999   0.925  -0.640  1.00  0.00     0.041 C   
ATOM     34  C16 UNL     1      -5.185   1.855  -0.626  1.00  0.00     0.011 C   
ATOM     35  C17 UNL     1      -4.805   1.149  -1.895  1.00  0.00     0.011 C   
ENDBRANCH  30  33
ENDBRANCH  27  28
ENDBRANCH   3  27
TORSDOF 8
