REMARK SMILES Cc1n[nH]c(C2CC2)c1Cn1cc([C@@H]([NH2+]Cc2ccc3c(c2)OCO3)C2CCCCC2)nn1
REMARK SMILES IDX 11 1 12 2 13 3 32 4 33 5 10 7 9 8 2 9 3 10 4 11 5 12 1 13
REMARK SMILES IDX 6 15 7 16 8 17 14 18 15 19 16 22 17 23 18 24 22 25 19 26
REMARK SMILES IDX 21 27 20 28 23 29 25 30 24 31 26 32 27 33 31 34 28 35 30 36
REMARK SMILES IDX 29 37
REMARK H PARENT 12 6 4 14 15 20 15 21
ROOT
ATOM     1   N3  UNL     1      -2.150  -1.474  -0.733  1.00  0.00    -0.208 N   
ATOM     2   C9  UNL     1      -1.816  -0.162  -0.939  1.00  0.00     0.046 A   
ATOM     3   C10 UNL     1      -1.040   0.161   0.152  1.00  0.00     0.127 A   
ATOM     4   N5  UNL     1      -0.977  -0.922   0.993  1.00  0.00    -0.132 NA  
ATOM     5   N6  UNL     1      -1.677  -1.905   0.454  1.00  0.00    -0.076 NA  
ATOM     6   H12 UNL     1      -2.109   0.374  -1.831  1.00  0.00     0.083 HD  
ENDROOT
BRANCH   1   7
ATOM     7   C8  UNL     1      -2.884  -2.372  -1.612  1.00  0.00     0.173 C   
BRANCH   7   8
ATOM     8   C7  UNL     1      -2.127  -2.621  -2.871  1.00  0.00     0.013 A   
ATOM     9   C2  UNL     1      -0.835  -3.213  -3.010  1.00  0.00     0.062 A   
ATOM     10  N1  UNL     1      -0.448  -3.268  -4.289  1.00  0.00    -0.189 NA  
ATOM     11  N2  UNL     1      -1.494  -2.790  -4.975  1.00  0.00    -0.242 N   
ATOM     12  C3  UNL     1      -2.508  -2.361  -4.172  1.00  0.00     0.035 A   
ATOM     13  C1  UNL     1       0.067  -3.729  -1.947  1.00  0.00     0.069 C   
ATOM     14  H4  UNL     1      -1.447  -2.781  -5.989  1.00  0.00     0.175 HD  
BRANCH  12  15
ATOM     15  C4  UNL     1      -3.849  -1.758  -4.651  1.00  0.00     0.036 C   
ATOM     16  C5  UNL     1      -3.872  -0.850  -5.851  1.00  0.00     0.010 C   
ATOM     17  C6  UNL     1      -4.077  -0.280  -4.479  1.00  0.00     0.010 C   
ENDBRANCH  12  15
ENDBRANCH   7   8
ENDBRANCH   1   7
BRANCH   3  18
ATOM     18  C11 UNL     1      -0.303   1.415   0.504  1.00  0.00     0.117 C   
BRANCH  18  19
ATOM     19  N4  UNL     1       0.147   1.375   1.940  1.00  0.00     0.249 N   
ATOM     20  H14 UNL     1       0.960   1.972   2.115  1.00  0.00     0.199 HD  
ATOM     21  H15 UNL     1       0.458   0.409   2.122  1.00  0.00     0.199 HD  
BRANCH  19  22
ATOM     22  C12 UNL     1      -0.906   1.686   2.946  1.00  0.00     0.164 C   
BRANCH  22  23
ATOM     23  C13 UNL     1      -0.360   1.530   4.337  1.00  0.00    -0.002 A   
ATOM     24  C14 UNL     1       0.164   2.645   5.032  1.00  0.00     0.012 A   
ATOM     25  C18 UNL     1      -0.314   0.257   4.931  1.00  0.00     0.045 A   
ATOM     26  C15 UNL     1       0.719   2.498   6.309  1.00  0.00     0.037 A   
ATOM     27  C17 UNL     1       0.241   0.148   6.189  1.00  0.00     0.109 A   
ATOM     28  C16 UNL     1       0.743   1.236   6.859  1.00  0.00     0.108 A   
ATOM     29  O1  UNL     1       0.366  -1.003   6.901  1.00  0.00    -0.316 OA  
ATOM     30  O2  UNL     1       1.244   0.909   8.078  1.00  0.00    -0.316 OA  
ATOM     31  C19 UNL     1       0.984  -0.511   8.112  1.00  0.00     0.337 C   
ENDBRANCH  22  23
ENDBRANCH  19  22
ENDBRANCH  18  19
BRANCH  18  32
ATOM     32  C20 UNL     1       0.911   1.657  -0.434  1.00  0.00     0.043 C   
ATOM     33  C21 UNL     1       2.047   0.628  -0.261  1.00  0.00     0.010 C   
ATOM     34  C25 UNL     1       1.464   3.089  -0.297  1.00  0.00     0.010 C   
ATOM     35  C22 UNL     1       3.191   0.889  -1.241  1.00  0.00     0.001 C   
ATOM     36  C24 UNL     1       2.610   3.344  -1.276  1.00  0.00     0.001 C   
ATOM     37  C23 UNL     1       3.723   2.313  -1.121  1.00  0.00     0.000 C   
ENDBRANCH  18  32
ENDBRANCH   3  18
TORSDOF 8
