REMARK SMILES COc1cccc(CCn2cc([C@@H]([NH2+]Cc3ccc4c(c3)OCO4)C(C)C)nn2)c1
REMARK SMILES IDX 10 1 11 2 12 3 28 4 29 5 9 7 8 8 7 9 3 10 4 11 30 12 5 13
REMARK SMILES IDX 6 14 2 15 1 16 13 17 14 18 15 21 16 22 17 23 21 24 18 25
REMARK SMILES IDX 20 26 19 27 22 28 24 29 23 30 25 31 26 32 27 33
REMARK H PARENT 11 6 14 19 14 20
ROOT
ATOM     1   N1  UNL     1      -0.478  -3.385   2.403  1.00  0.00    -0.212 N   
ATOM     2   C9  UNL     1      -1.280  -2.278   2.436  1.00  0.00     0.045 A   
ATOM     3   C10 UNL     1      -1.526  -2.010   1.108  1.00  0.00     0.127 A   
ATOM     4   N3  UNL     1      -0.915  -2.964   0.335  1.00  0.00    -0.132 NA  
ATOM     5   N4  UNL     1      -0.282  -3.802   1.139  1.00  0.00    -0.076 NA  
ATOM     6   H11 UNL     1      -1.530  -1.772   3.357  1.00  0.00     0.083 HD  
ENDROOT
BRANCH   1   7
ATOM     7   C8  UNL     1       0.235  -3.998   3.505  1.00  0.00     0.139 C   
BRANCH   7   8
ATOM     8   C7  UNL     1       1.720  -3.620   3.534  1.00  0.00     0.057 C   
BRANCH   8   9
ATOM     9   C6  UNL     1       1.944  -2.132   3.683  1.00  0.00    -0.044 A   
ATOM     10  C2  UNL     1       2.280   0.054   2.658  1.00  0.00     0.075 A   
ATOM     11  C3  UNL     1       2.248   0.648   3.918  1.00  0.00     0.033 A   
ATOM     12  C23 UNL     1       2.128  -1.329   2.545  1.00  0.00     0.037 A   
ATOM     13  C4  UNL     1       2.077  -0.143   5.058  1.00  0.00     0.003 A   
ATOM     14  C5  UNL     1       1.922  -1.525   4.942  1.00  0.00     0.004 A   
BRANCH  10  15
ATOM     15  O1  UNL     1       2.397   0.734   1.474  1.00  0.00    -0.349 OA  
ATOM     16  C1  UNL     1       3.182   1.924   1.544  1.00  0.00     0.203 C   
ENDBRANCH  10  15
ENDBRANCH   8   9
ENDBRANCH   7   8
ENDBRANCH   1   7
BRANCH   3  17
ATOM     17  C11 UNL     1      -2.203  -0.851   0.455  1.00  0.00     0.117 C   
BRANCH  17  18
ATOM     18  N2  UNL     1      -1.435  -0.424  -0.771  1.00  0.00     0.249 N   
ATOM     19  H13 UNL     1      -1.254  -1.273  -1.327  1.00  0.00     0.199 HD  
ATOM     20  H14 UNL     1      -1.990   0.203  -1.360  1.00  0.00     0.199 HD  
BRANCH  18  21
ATOM     21  C12 UNL     1      -0.107   0.201  -0.498  1.00  0.00     0.164 C   
BRANCH  21  22
ATOM     22  C13 UNL     1       0.528   0.663  -1.779  1.00  0.00    -0.002 A   
ATOM     23  C14 UNL     1       0.321   1.983  -2.247  1.00  0.00     0.012 A   
ATOM     24  C18 UNL     1       1.292  -0.233  -2.546  1.00  0.00     0.045 A   
ATOM     25  C15 UNL     1       0.875   2.409  -3.459  1.00  0.00     0.037 A   
ATOM     26  C17 UNL     1       1.824   0.219  -3.735  1.00  0.00     0.109 A   
ATOM     27  C16 UNL     1       1.621   1.502  -4.179  1.00  0.00     0.108 A   
ATOM     28  O2  UNL     1       2.582  -0.514  -4.592  1.00  0.00    -0.316 OA  
ATOM     29  O3  UNL     1       2.229   1.740  -5.371  1.00  0.00    -0.316 OA  
ATOM     30  C19 UNL     1       2.855   0.464  -5.621  1.00  0.00     0.337 C   
ENDBRANCH  21  22
ENDBRANCH  18  21
ENDBRANCH  17  18
BRANCH  17  31
ATOM     31  C20 UNL     1      -3.676  -1.115   0.051  1.00  0.00     0.037 C   
ATOM     32  C21 UNL     1      -4.559  -1.364   1.280  1.00  0.00     0.014 C   
ATOM     33  C22 UNL     1      -3.863  -2.253  -0.959  1.00  0.00     0.014 C   
ENDBRANCH  17  31
ENDBRANCH   3  17
TORSDOF 9
