REMARK SMILES Cc1cccc([C@@H](CO)n2cc([C@H](CC(C)C)[NH2+]Cc3ccc4c(c3)OCO4)nn2)c1
REMARK SMILES IDX 10 1 11 2 12 3 29 4 30 5 7 7 6 8 2 9 3 10 31 11 4 12 5 13
REMARK SMILES IDX 1 14 8 15 9 16 13 18 14 19 15 20 16 21 17 22 18 23 19 26
REMARK SMILES IDX 20 27 21 28 25 29 22 30 24 31 23 32 26 33 28 34 27 35
REMARK H PARENT 11 6 9 17 18 24 18 25
ROOT
ATOM     1   N1  UNL     1       0.029  -0.677   0.670  1.00  0.00    -0.202 N   
ATOM     2   C9  UNL     1      -0.138  -0.276  -0.631  1.00  0.00     0.046 A   
ATOM     3   C10 UNL     1       1.082   0.260  -0.976  1.00  0.00     0.127 A   
ATOM     4   N3  UNL     1       1.934   0.171   0.094  1.00  0.00    -0.132 NA  
ATOM     5   N4  UNL     1       1.275  -0.379   1.100  1.00  0.00    -0.075 NA  
ATOM     6   H11 UNL     1      -1.079  -0.389  -1.151  1.00  0.00     0.083 HD  
ENDROOT
BRANCH   1   7
ATOM     7   C7  UNL     1      -0.976  -1.272   1.556  1.00  0.00     0.155 C   
BRANCH   7   8
ATOM     8   C6  UNL     1      -0.509  -2.616   2.092  1.00  0.00    -0.023 A   
ATOM     9   C2  UNL     1       0.821  -3.962   3.642  1.00  0.00    -0.051 A   
ATOM     10  C3  UNL     1       0.330  -5.126   3.042  1.00  0.00     0.003 A   
ATOM     11  C24 UNL     1       0.409  -2.715   3.153  1.00  0.00     0.009 A   
ATOM     12  C4  UNL     1      -0.574  -5.045   1.985  1.00  0.00     0.001 A   
ATOM     13  C5  UNL     1      -0.992  -3.801   1.513  1.00  0.00     0.006 A   
ATOM     14  C1  UNL     1       1.826  -4.048   4.754  1.00  0.00     0.044 C   
ENDBRANCH   7   8
BRANCH   7  15
ATOM     15  C8  UNL     1      -1.407  -0.274   2.643  1.00  0.00     0.185 C   
BRANCH  15  16
ATOM     16  O1  UNL     1      -2.260   0.724   2.073  1.00  0.00    -0.394 OA  
ATOM     17  H10 UNL     1      -2.385   1.415   2.751  1.00  0.00     0.210 HD  
ENDBRANCH  15  16
ENDBRANCH   7  15
ENDBRANCH   1   7
BRANCH   3  18
ATOM     18  C11 UNL     1       1.552   0.925  -2.224  1.00  0.00     0.114 C   
BRANCH  18  19
ATOM     19  C12 UNL     1       2.319  -0.039  -3.151  1.00  0.00     0.064 C   
BRANCH  19  20
ATOM     20  C13 UNL     1       1.492  -1.219  -3.706  1.00  0.00    -0.012 C   
ATOM     21  C14 UNL     1       2.392  -2.126  -4.551  1.00  0.00     0.007 C   
ATOM     22  C15 UNL     1       0.300  -0.754  -4.543  1.00  0.00     0.007 C   
ENDBRANCH  19  20
ENDBRANCH  18  19
BRANCH  18  23
ATOM     23  N2  UNL     1       2.508   2.053  -1.870  1.00  0.00     0.249 N   
ATOM     24  H22 UNL     1       2.970   1.761  -0.993  1.00  0.00     0.199 HD  
ATOM     25  H23 UNL     1       3.250   2.128  -2.571  1.00  0.00     0.199 HD  
BRANCH  23  26
ATOM     26  C16 UNL     1       1.902   3.398  -1.656  1.00  0.00     0.164 C   
BRANCH  26  27
ATOM     27  C17 UNL     1       1.064   3.500  -0.414  1.00  0.00    -0.002 A   
ATOM     28  C18 UNL     1      -0.349   3.513  -0.498  1.00  0.00     0.012 A   
ATOM     29  C22 UNL     1       1.680   3.542   0.850  1.00  0.00     0.045 A   
ATOM     30  C19 UNL     1      -1.137   3.546   0.657  1.00  0.00     0.037 A   
ATOM     31  C21 UNL     1       0.874   3.575   1.968  1.00  0.00     0.109 A   
ATOM     32  C20 UNL     1      -0.495   3.569   1.876  1.00  0.00     0.108 A   
ATOM     33  O2  UNL     1       1.309   3.604   3.255  1.00  0.00    -0.316 OA  
ATOM     34  O3  UNL     1      -1.097   3.572   3.095  1.00  0.00    -0.316 OA  
ATOM     35  C23 UNL     1       0.054   3.644   3.967  1.00  0.00     0.337 C   
ENDBRANCH  26  27
ENDBRANCH  23  26
ENDBRANCH  18  23
ENDBRANCH   3  18
TORSDOF 10
