REMARK SMILES Cc1cccc([C@H](CO)n2cc([C@H](CC(C)C)[NH2+]Cc3ccc4c(c3)OCO4)nn2)c1
REMARK SMILES IDX 10 1 11 2 12 3 29 4 30 5 7 7 6 8 2 9 3 10 31 11 4 12 5 13
REMARK SMILES IDX 1 14 8 15 9 16 13 18 14 19 15 20 16 21 17 22 18 23 19 26
REMARK SMILES IDX 20 27 21 28 25 29 22 30 24 31 23 32 26 33 28 34 27 35
REMARK H PARENT 11 6 9 17 18 24 18 25
ROOT
ATOM     1   N1  UNL     1      -0.599   0.647  -1.715  1.00  0.00    -0.202 N   
ATOM     2   C9  UNL     1      -0.116  -0.116  -0.686  1.00  0.00     0.046 A   
ATOM     3   C10 UNL     1      -0.430  -1.405  -1.045  1.00  0.00     0.127 A   
ATOM     4   N3  UNL     1      -1.112  -1.389  -2.234  1.00  0.00    -0.132 NA  
ATOM     5   N4  UNL     1      -1.221  -0.130  -2.628  1.00  0.00    -0.075 NA  
ATOM     6   H11 UNL     1       0.390   0.320   0.165  1.00  0.00     0.083 HD  
ENDROOT
BRANCH   1   7
ATOM     7   C7  UNL     1      -0.528   2.096  -1.902  1.00  0.00     0.155 C   
BRANCH   7   8
ATOM     8   C6  UNL     1       0.887   2.605  -1.647  1.00  0.00    -0.023 A   
ATOM     9   C2  UNL     1       3.195   2.815  -2.447  1.00  0.00    -0.051 A   
ATOM     10  C3  UNL     1       3.541   3.460  -1.258  1.00  0.00     0.003 A   
ATOM     11  C24 UNL     1       1.875   2.380  -2.627  1.00  0.00     0.009 A   
ATOM     12  C4  UNL     1       2.579   3.687  -0.276  1.00  0.00     0.001 A   
ATOM     13  C5  UNL     1       1.262   3.264  -0.467  1.00  0.00     0.006 A   
ATOM     14  C1  UNL     1       4.235   2.543  -3.494  1.00  0.00     0.044 C   
ENDBRANCH   7   8
BRANCH   7  15
ATOM     15  C8  UNL     1      -1.679   2.804  -1.158  1.00  0.00     0.185 C   
BRANCH  15  16
ATOM     16  O1  UNL     1      -1.725   2.490   0.236  1.00  0.00    -0.394 OA  
ATOM     17  H10 UNL     1      -2.418   3.053   0.629  1.00  0.00     0.210 HD  
ENDBRANCH  15  16
ENDBRANCH   7  15
ENDBRANCH   1   7
BRANCH   3  18
ATOM     18  C11 UNL     1      -0.199  -2.697  -0.341  1.00  0.00     0.114 C   
BRANCH  18  19
ATOM     19  C12 UNL     1       0.987  -3.487  -0.930  1.00  0.00     0.064 C   
BRANCH  19  20
ATOM     20  C13 UNL     1       2.361  -2.792  -0.811  1.00  0.00    -0.012 C   
ATOM     21  C14 UNL     1       3.432  -3.650  -1.491  1.00  0.00     0.007 C   
ATOM     22  C15 UNL     1       2.759  -2.529   0.642  1.00  0.00     0.007 C   
ENDBRANCH  19  20
ENDBRANCH  18  19
BRANCH  18  23
ATOM     23  N2  UNL     1      -1.424  -3.582  -0.473  1.00  0.00     0.249 N   
ATOM     24  H22 UNL     1      -1.636  -3.625  -1.480  1.00  0.00     0.199 HD  
ATOM     25  H23 UNL     1      -1.205  -4.533  -0.163  1.00  0.00     0.199 HD  
BRANCH  23  26
ATOM     26  C16 UNL     1      -2.658  -3.108   0.222  1.00  0.00     0.164 C   
BRANCH  26  27
ATOM     27  C17 UNL     1      -2.529  -3.127   1.719  1.00  0.00    -0.002 A   
ATOM     28  C18 UNL     1      -2.588  -4.351   2.428  1.00  0.00     0.012 A   
ATOM     29  C22 UNL     1      -2.313  -1.929   2.424  1.00  0.00     0.045 A   
ATOM     30  C19 UNL     1      -2.429  -4.385   3.817  1.00  0.00     0.037 A   
ATOM     31  C21 UNL     1      -2.159  -1.998   3.792  1.00  0.00     0.109 A   
ATOM     32  C20 UNL     1      -2.214  -3.191   4.470  1.00  0.00     0.108 A   
ATOM     33  O2  UNL     1      -1.935  -0.942   4.617  1.00  0.00    -0.316 OA  
ATOM     34  O3  UNL     1      -2.035  -3.037   5.807  1.00  0.00    -0.316 OA  
ATOM     35  C23 UNL     1      -1.884  -1.604   5.902  1.00  0.00     0.337 C   
ENDBRANCH  26  27
ENDBRANCH  23  26
ENDBRANCH  18  23
ENDBRANCH   3  18
TORSDOF 10
