REMARK SMILES CC(C)(C)[C@H]([NH2+]Cc1ccc2c(c1)OCO2)c1cn(Cc2cc(F)ccc2N([O-])[O-])nn1
REMARK SMILES IDX 17 1 18 2 19 3 31 4 32 5 5 7 2 8 1 9 3 10 4 11 6 12 7 15
REMARK SMILES IDX 8 16 9 17 13 18 10 19 12 20 11 21 14 22 16 23 15 24 20 25
REMARK SMILES IDX 21 26 22 27 27 28 23 29 26 30 25 31 24 32 28 33 29 34 30 35
REMARK H PARENT 18 6 6 13 6 14
ROOT
ATOM     1   C14 UNL     1      -0.476  -0.888  -0.383  1.00  0.00     0.127 A   
ATOM     2   C15 UNL     1      -1.762  -0.818   0.104  1.00  0.00     0.046 A   
ATOM     3   N2  UNL     1      -1.772  -1.705   1.145  1.00  0.00    -0.208 N   
ATOM     4   N4  UNL     1      -0.576  -2.312   1.268  1.00  0.00    -0.076 NA  
ATOM     5   N5  UNL     1       0.230  -1.812   0.346  1.00  0.00    -0.132 NA  
ATOM     6   H20 UNL     1      -2.621  -0.209  -0.149  1.00  0.00     0.083 HD  
ENDROOT
BRANCH   1   7
ATOM     7   C5  UNL     1       0.225  -0.083  -1.435  1.00  0.00     0.120 C   
BRANCH   7   8
ATOM     8   C2  UNL     1       0.287  -0.773  -2.843  1.00  0.00     0.010 C   
ATOM     9   C1  UNL     1       1.151  -2.049  -2.848  1.00  0.00     0.017 C   
ATOM     10  C3  UNL     1      -1.137  -1.147  -3.315  1.00  0.00     0.017 C   
ATOM     11  C4  UNL     1       0.864   0.208  -3.892  1.00  0.00     0.017 C   
ENDBRANCH   7   8
BRANCH   7  12
ATOM     12  N1  UNL     1       1.622   0.242  -0.944  1.00  0.00     0.250 N   
ATOM     13  H11 UNL     1       2.237   0.513  -1.714  1.00  0.00     0.199 HD  
ATOM     14  H12 UNL     1       1.998  -0.633  -0.552  1.00  0.00     0.199 HD  
BRANCH  12  15
ATOM     15  C6  UNL     1       1.714   1.279   0.131  1.00  0.00     0.164 C   
BRANCH  15  16
ATOM     16  C7  UNL     1       1.322   2.649  -0.351  1.00  0.00    -0.002 A   
ATOM     17  C8  UNL     1       0.152   3.270   0.148  1.00  0.00     0.012 A   
ATOM     18  C12 UNL     1       2.096   3.311  -1.321  1.00  0.00     0.045 A   
ATOM     19  C9  UNL     1      -0.255   4.523  -0.324  1.00  0.00     0.037 A   
ATOM     20  C11 UNL     1       1.664   4.542  -1.768  1.00  0.00     0.109 A   
ATOM     21  C10 UNL     1       0.521   5.130  -1.286  1.00  0.00     0.108 A   
ATOM     22  O1  UNL     1       2.281   5.300  -2.712  1.00  0.00    -0.316 OA  
ATOM     23  O2  UNL     1       0.276   6.335  -1.864  1.00  0.00    -0.316 OA  
ATOM     24  C13 UNL     1       1.403   6.447  -2.760  1.00  0.00     0.337 C   
ENDBRANCH  15  16
ENDBRANCH  12  15
ENDBRANCH   7  12
ENDBRANCH   1   7
BRANCH   3  25
ATOM     25  C16 UNL     1      -2.841  -1.950   2.104  1.00  0.00     0.171 C   
BRANCH  25  26
ATOM     26  C17 UNL     1      -2.398  -1.789   3.545  1.00  0.00     0.003 A   
ATOM     27  C18 UNL     1      -2.586  -2.869   4.426  1.00  0.00     0.047 A   
ATOM     28  C22 UNL     1      -1.806  -0.620   4.077  1.00  0.00     0.123 A   
ATOM     29  C19 UNL     1      -2.184  -2.779   5.759  1.00  0.00     0.123 A   
ATOM     30  C21 UNL     1      -1.399  -0.533   5.418  1.00  0.00     0.034 A   
ATOM     31  C20 UNL     1      -1.592  -1.625   6.260  1.00  0.00     0.041 A   
ATOM     32  F1  UNL     1      -2.370  -3.827   6.570  1.00  0.00    -0.207 F   
BRANCH  28  33
ATOM     33  N3  UNL     1      -1.586   0.554   3.242  1.00  0.00     0.092 N   
ATOM     34  O3  UNL     1      -0.432   1.000   3.171  1.00  0.00    -0.138 OA  
ATOM     35  O4  UNL     1      -2.558   0.997   2.618  1.00  0.00    -0.138 OA  
ENDBRANCH  28  33
ENDBRANCH  25  26
ENDBRANCH   3  25
TORSDOF 8
