REMARK SMILES Cc1cc(CCn2cc([C@@H]([NH2+]Cc3ccc4c(c3)OCO4)C3CCCCC3)nn2)nn1C
REMARK SMILES IDX 7 1 8 2 9 3 28 4 29 5 6 7 5 8 4 9 2 10 3 11 31 12 30 13 1 14
REMARK SMILES IDX 32 15 10 16 11 17 12 20 13 21 14 22 18 23 15 24 17 25 16 26
REMARK SMILES IDX 19 27 21 28 20 29 22 30 23 31 27 32 24 33 26 34 25 35
REMARK H PARENT 8 6 11 18 11 19
ROOT
ATOM     1   N1  UNL     1      -2.183   1.523   1.696  1.00  0.00    -0.212 N   
ATOM     2   C7  UNL     1      -2.019   1.390   0.346  1.00  0.00     0.045 A   
ATOM     3   C8  UNL     1      -0.665   1.599   0.185  1.00  0.00     0.127 A   
ATOM     4   N3  UNL     1      -0.145   2.108   1.343  1.00  0.00    -0.132 NA  
ATOM     5   N4  UNL     1      -1.090   2.056   2.267  1.00  0.00    -0.076 NA  
ATOM     6   H9  UNL     1      -2.775   0.938  -0.281  1.00  0.00     0.083 HD  
ENDROOT
BRANCH   1   7
ATOM     7   C6  UNL     1      -3.142   0.795   2.505  1.00  0.00     0.140 C   
BRANCH   7   8
ATOM     8   C5  UNL     1      -2.666  -0.643   2.740  1.00  0.00     0.079 C   
BRANCH   8   9
ATOM     9   C4  UNL     1      -2.751  -1.522   1.524  1.00  0.00     0.062 A   
ATOM     10  C2  UNL     1      -3.501  -2.933  -0.019  1.00  0.00     0.027 A   
ATOM     11  C3  UNL     1      -3.918  -2.146   1.030  1.00  0.00     0.046 A   
ATOM     12  N6  UNL     1      -2.140  -2.792  -0.063  1.00  0.00    -0.233 N   
ATOM     13  N5  UNL     1      -1.676  -1.809   0.760  1.00  0.00    -0.187 NA  
ATOM     14  C1  UNL     1      -4.278  -3.830  -0.911  1.00  0.00     0.063 C   
ATOM     15  C24 UNL     1      -1.199  -3.574  -0.835  1.00  0.00     0.159 C   
ENDBRANCH   8   9
ENDBRANCH   7   8
ENDBRANCH   1   7
BRANCH   3  16
ATOM     16  C9  UNL     1       0.258   1.067  -0.860  1.00  0.00     0.117 C   
BRANCH  16  17
ATOM     17  N2  UNL     1       0.596  -0.354  -0.439  1.00  0.00     0.249 N   
ATOM     18  H11 UNL     1      -0.240  -0.773   0.032  1.00  0.00     0.199 HD  
ATOM     19  H12 UNL     1       0.783  -0.964  -1.233  1.00  0.00     0.199 HD  
BRANCH  17  20
ATOM     20  C10 UNL     1       1.717  -0.465   0.537  1.00  0.00     0.164 C   
BRANCH  20  21
ATOM     21  C11 UNL     1       2.044  -1.908   0.808  1.00  0.00    -0.002 A   
ATOM     22  C12 UNL     1       2.804  -2.658  -0.122  1.00  0.00     0.012 A   
ATOM     23  C16 UNL     1       1.557  -2.533   1.968  1.00  0.00     0.045 A   
ATOM     24  C13 UNL     1       3.078  -4.012   0.101  1.00  0.00     0.037 A   
ATOM     25  C15 UNL     1       1.859  -3.863   2.167  1.00  0.00     0.109 A   
ATOM     26  C14 UNL     1       2.593  -4.583   1.258  1.00  0.00     0.108 A   
ATOM     27  O1  UNL     1       1.490  -4.607   3.244  1.00  0.00    -0.316 OA  
ATOM     28  O2  UNL     1       2.766  -5.876   1.639  1.00  0.00    -0.316 OA  
ATOM     29  C17 UNL     1       2.107  -5.874   2.925  1.00  0.00     0.337 C   
ENDBRANCH  20  21
ENDBRANCH  17  20
ENDBRANCH  16  17
BRANCH  16  30
ATOM     30  C18 UNL     1      -0.307   1.062  -2.308  1.00  0.00     0.043 C   
ATOM     31  C19 UNL     1       0.741   0.554  -3.328  1.00  0.00     0.010 C   
ATOM     32  C23 UNL     1      -0.772   2.474  -2.732  1.00  0.00     0.010 C   
ATOM     33  C20 UNL     1       0.221   0.594  -4.763  1.00  0.00     0.001 C   
ATOM     34  C22 UNL     1      -1.296   2.504  -4.167  1.00  0.00     0.001 C   
ATOM     35  C21 UNL     1      -0.262   1.982  -5.155  1.00  0.00     0.000 C   
ENDBRANCH  16  30
ENDBRANCH   3  16
TORSDOF 8
