REMARK SMILES CC(C)C[C@H]([NH2+]Cc1ccc2c(c1)OCO2)c1cn(Cc2cccc(C(C)(C)O)n2)nn1
REMARK SMILES IDX 17 1 18 2 19 3 31 4 32 5 5 7 4 8 2 9 1 10 3 11 6 12 7 15
REMARK SMILES IDX 8 16 9 17 13 18 10 19 12 20 11 21 14 22 16 23 15 24 20 25
REMARK SMILES IDX 21 26 22 27 30 28 23 29 25 30 24 31 26 32 27 33 28 34 29 35
REMARK H PARENT 18 6 6 13 6 14 29 36
ROOT
ATOM     1   C14 UNL     1      -1.129   0.162  -2.310  1.00  0.00     0.127 A   
ATOM     2   C15 UNL     1       0.094   0.289  -2.936  1.00  0.00     0.046 A   
ATOM     3   N2  UNL     1       0.139  -0.785  -3.790  1.00  0.00    -0.206 N   
ATOM     4   N4  UNL     1      -1.052  -1.413  -3.823  1.00  0.00    -0.076 NA  
ATOM     5   N5  UNL     1      -1.831  -0.856  -2.908  1.00  0.00    -0.132 NA  
ATOM     6   H20 UNL     1       0.965   0.900  -2.740  1.00  0.00     0.083 HD  
ENDROOT
BRANCH   1   7
ATOM     7   C5  UNL     1      -1.678   0.769  -1.056  1.00  0.00     0.114 C   
BRANCH   7   8
ATOM     8   C4  UNL     1      -0.932   2.015  -0.555  1.00  0.00     0.064 C   
BRANCH   8   9
ATOM     9   C2  UNL     1      -0.993   3.243  -1.491  1.00  0.00    -0.012 C   
ATOM     10  C1  UNL     1      -0.223   4.405  -0.859  1.00  0.00     0.007 C   
ATOM     11  C3  UNL     1      -2.426   3.681  -1.799  1.00  0.00     0.007 C   
ENDBRANCH   8   9
ENDBRANCH   7   8
BRANCH   7  12
ATOM     12  N1  UNL     1      -1.640  -0.310   0.004  1.00  0.00     0.249 N   
ATOM     13  H11 UNL     1      -1.946  -1.168  -0.477  1.00  0.00     0.199 HD  
ATOM     14  H12 UNL     1      -0.660  -0.541   0.265  1.00  0.00     0.199 HD  
BRANCH  12  15
ATOM     15  C6  UNL     1      -2.493  -0.157   1.209  1.00  0.00     0.164 C   
BRANCH  15  16
ATOM     16  C7  UNL     1      -1.725   0.246   2.437  1.00  0.00    -0.002 A   
ATOM     17  C8  UNL     1      -0.843  -0.678   3.053  1.00  0.00     0.012 A   
ATOM     18  C12 UNL     1      -1.861   1.532   2.984  1.00  0.00     0.045 A   
ATOM     19  C9  UNL     1      -0.093  -0.320   4.178  1.00  0.00     0.037 A   
ATOM     20  C11 UNL     1      -1.098   1.857   4.088  1.00  0.00     0.109 A   
ATOM     21  C10 UNL     1      -0.236   0.959   4.664  1.00  0.00     0.108 A   
ATOM     22  O1  UNL     1      -1.092   3.059   4.720  1.00  0.00    -0.316 OA  
ATOM     23  O2  UNL     1       0.434   1.488   5.725  1.00  0.00    -0.316 OA  
ATOM     24  C13 UNL     1      -0.096   2.830   5.743  1.00  0.00     0.337 C   
ENDBRANCH  15  16
ENDBRANCH  12  15
ENDBRANCH   7  12
ENDBRANCH   1   7
BRANCH   3  25
ATOM     25  C16 UNL     1       1.325  -1.389  -4.391  1.00  0.00     0.190 C   
BRANCH  25  26
ATOM     26  C17 UNL     1       2.349  -1.720  -3.320  1.00  0.00     0.060 A   
ATOM     27  C18 UNL     1       3.699  -1.840  -3.620  1.00  0.00     0.025 A   
ATOM     28  N3  UNL     1       1.893  -1.855  -2.046  1.00  0.00    -0.253 NA  
ATOM     29  C19 UNL     1       4.593  -2.082  -2.579  1.00  0.00     0.004 A   
ATOM     30  C21 UNL     1       2.774  -2.035  -1.029  1.00  0.00     0.072 A   
ATOM     31  C20 UNL     1       4.132  -2.178  -1.264  1.00  0.00     0.027 A   
BRANCH  30  32
ATOM     32  C22 UNL     1       2.138  -1.987   0.354  1.00  0.00     0.101 C   
ATOM     33  C23 UNL     1       2.649  -0.800   1.167  1.00  0.00     0.049 C   
ATOM     34  C24 UNL     1       2.303  -3.305   1.107  1.00  0.00     0.049 C   
BRANCH  32  35
ATOM     35  O3  UNL     1       0.700  -1.775   0.169  1.00  0.00    -0.384 OA  
ATOM     36  H32 UNL     1       0.588  -2.037  -0.780  1.00  0.00     0.211 HD  
ENDBRANCH  32  35
ENDBRANCH  30  32
ENDBRANCH  25  26
ENDBRANCH   3  25
TORSDOF 10
