REMARK SMILES CC(C)[C@H]([NH2+]Cc1ccc2c(c1)OCO2)c1cn(-c2cccc(N([O-])[O-])c2)nn1
REMARK SMILES IDX 16 1 17 2 18 3 28 4 29 5 4 6 2 7 1 8 3 9 5 10 6 13 7 14 8 15
REMARK SMILES IDX 12 16 9 17 11 18 10 19 13 20 15 21 14 22 19 23 20 24 27 25
REMARK SMILES IDX 21 26 23 27 22 28 24 29 25 30 26 31
REMARK H PARENT 5 11 5 12
ROOT
ATOM     1   C13 UNL     1      -0.105  -0.704   0.669  1.00  0.00     0.127 A   
ATOM     2   C14 UNL     1      -0.938  -1.150  -0.333  1.00  0.00     0.135 A   
ATOM     3   N2  UNL     1      -1.211  -0.033  -1.099  1.00  0.00    -0.181 N   
ATOM     4   N4  UNL     1      -0.537   1.026  -0.580  1.00  0.00    -0.071 NA  
ATOM     5   N5  UNL     1       0.123   0.632   0.496  1.00  0.00    -0.131 NA  
ENDROOT
BRANCH   1   6
ATOM     6   C4  UNL     1       0.541  -1.423   1.814  1.00  0.00     0.117 C   
BRANCH   6   7
ATOM     7   C2  UNL     1      -0.456  -1.692   2.972  1.00  0.00     0.037 C   
ATOM     8   C1  UNL     1       0.108  -2.692   3.987  1.00  0.00     0.014 C   
ATOM     9   C3  UNL     1      -0.920  -0.423   3.698  1.00  0.00     0.014 C   
ENDBRANCH   6   7
BRANCH   6  10
ATOM     10  N1  UNL     1       1.731  -0.652   2.320  1.00  0.00     0.249 N   
ATOM     11  H9  UNL     1       1.977  -0.904   3.282  1.00  0.00     0.199 HD  
ATOM     12  H10 UNL     1       1.455   0.342   2.348  1.00  0.00     0.199 HD  
BRANCH  10  13
ATOM     13  C5  UNL     1       2.956  -0.741   1.476  1.00  0.00     0.164 C   
BRANCH  13  14
ATOM     14  C6  UNL     1       4.039   0.138   2.032  1.00  0.00    -0.002 A   
ATOM     15  C7  UNL     1       5.007  -0.387   2.921  1.00  0.00     0.012 A   
ATOM     16  C11 UNL     1       4.064   1.507   1.710  1.00  0.00     0.045 A   
ATOM     17  C8  UNL     1       5.994   0.436   3.475  1.00  0.00     0.037 A   
ATOM     18  C10 UNL     1       5.049   2.289   2.275  1.00  0.00     0.109 A   
ATOM     19  C9  UNL     1       5.988   1.770   3.131  1.00  0.00     0.108 A   
ATOM     20  O1  UNL     1       5.215   3.622   2.068  1.00  0.00    -0.316 OA  
ATOM     21  O2  UNL     1       6.865   2.709   3.570  1.00  0.00    -0.316 OA  
ATOM     22  C12 UNL     1       6.384   3.882   2.878  1.00  0.00     0.337 C   
ENDBRANCH  13  14
ENDBRANCH  10  13
ENDBRANCH   6  10
ENDBRANCH   1   6
BRANCH   3  23
ATOM     23  C15 UNL     1      -2.032   0.089  -2.250  1.00  0.00     0.060 A   
ATOM     24  C16 UNL     1      -2.157   1.337  -2.883  1.00  0.00     0.026 A   
ATOM     25  C20 UNL     1      -2.724  -1.017  -2.763  1.00  0.00     0.057 A   
ATOM     26  C17 UNL     1      -2.964   1.481  -4.016  1.00  0.00     0.004 A   
ATOM     27  C19 UNL     1      -3.533  -0.859  -3.902  1.00  0.00     0.120 A   
ATOM     28  C18 UNL     1      -3.655   0.385  -4.530  1.00  0.00     0.031 A   
BRANCH  27  29
ATOM     29  N3  UNL     1      -4.262  -2.020  -4.434  1.00  0.00     0.092 N   
ATOM     30  O3  UNL     1      -4.122  -3.098  -3.839  1.00  0.00    -0.138 OA  
ATOM     31  O4  UNL     1      -4.966  -1.850  -5.437  1.00  0.00    -0.138 OA  
ENDBRANCH  27  29
ENDBRANCH   3  23
TORSDOF 7
