REMARK SMILES OC[C@@H](c1cncc(F)c1)n1cc([C@@H]([NH2+]Cc2ccc3c(c2)OCO3)C2CCCC2)nn1
REMARK SMILES IDX 11 1 12 2 13 3 31 4 32 5 3 7 2 8 1 9 4 11 5 12 10 13 6 14
REMARK SMILES IDX 8 15 7 16 9 17 14 18 15 19 16 22 17 23 18 24 22 25 19 26
REMARK SMILES IDX 21 27 20 28 23 29 25 30 24 31 26 32 27 33 30 34 28 35 29 36
REMARK H PARENT 12 6 1 10 15 20 15 21
ROOT
ATOM     1   N2  UNL     1       1.458  -2.463   0.553  1.00  0.00    -0.202 N   
ATOM     2   C8  UNL     1       1.300  -2.011  -0.730  1.00  0.00     0.046 A   
ATOM     3   C9  UNL     1       1.067  -0.663  -0.587  1.00  0.00     0.127 A   
ATOM     4   N4  UNL     1       1.060  -0.347   0.748  1.00  0.00    -0.132 NA  
ATOM     5   N5  UNL     1       1.289  -1.454   1.435  1.00  0.00    -0.075 NA  
ATOM     6   H8  UNL     1       1.373  -2.667  -1.587  1.00  0.00     0.083 HD  
ENDROOT
BRANCH   1   7
ATOM     7   C2  UNL     1       1.780  -3.809   1.029  1.00  0.00     0.157 C   
BRANCH   7   8
ATOM     8   C1  UNL     1       0.522  -4.701   1.067  1.00  0.00     0.186 C   
BRANCH   8   9
ATOM     9   O1  UNL     1      -0.111  -4.817  -0.208  1.00  0.00    -0.394 OA  
ATOM     10  H1  UNL     1      -0.860  -5.434  -0.098  1.00  0.00     0.210 HD  
ENDBRANCH   8   9
ENDBRANCH   7   8
BRANCH   7  11
ATOM     11  C3  UNL     1       2.996  -4.356   0.302  1.00  0.00    -0.002 A   
ATOM     12  C4  UNL     1       2.914  -5.248  -0.767  1.00  0.00     0.117 A   
ATOM     13  C7  UNL     1       4.283  -3.930   0.672  1.00  0.00     0.048 A   
ATOM     14  N1  UNL     1       3.985  -5.718  -1.452  1.00  0.00    -0.261 NA  
ATOM     15  C6  UNL     1       5.393  -4.407  -0.012  1.00  0.00     0.141 A   
ATOM     16  C5  UNL     1       5.205  -5.291  -1.055  1.00  0.00     0.150 A   
ATOM     17  F1  UNL     1       6.620  -4.002   0.332  1.00  0.00    -0.205 F   
ENDBRANCH   7  11
ENDBRANCH   1   7
BRANCH   3  18
ATOM     18  C10 UNL     1       0.818   0.405  -1.602  1.00  0.00     0.117 C   
BRANCH  18  19
ATOM     19  N3  UNL     1      -0.005   1.512  -1.000  1.00  0.00     0.249 N   
ATOM     20  H10 UNL     1       0.099   2.394  -1.510  1.00  0.00     0.199 HD  
ATOM     21  H11 UNL     1       0.372   1.681  -0.056  1.00  0.00     0.199 HD  
BRANCH  19  22
ATOM     22  C11 UNL     1      -1.454   1.207  -0.840  1.00  0.00     0.164 C   
BRANCH  22  23
ATOM     23  C12 UNL     1      -2.163   2.367  -0.200  1.00  0.00    -0.002 A   
ATOM     24  C13 UNL     1      -2.823   3.333  -0.996  1.00  0.00     0.012 A   
ATOM     25  C17 UNL     1      -2.128   2.527   1.197  1.00  0.00     0.045 A   
ATOM     26  C14 UNL     1      -3.448   4.440  -0.411  1.00  0.00     0.037 A   
ATOM     27  C16 UNL     1      -2.752   3.631   1.741  1.00  0.00     0.109 A   
ATOM     28  C15 UNL     1      -3.393   4.560   0.960  1.00  0.00     0.108 A   
ATOM     29  O2  UNL     1      -2.808   3.935   3.063  1.00  0.00    -0.316 OA  
ATOM     30  O3  UNL     1      -3.937   5.566   1.693  1.00  0.00    -0.316 OA  
ATOM     31  C18 UNL     1      -3.575   5.160   3.031  1.00  0.00     0.337 C   
ENDBRANCH  22  23
ENDBRANCH  19  22
ENDBRANCH  18  19
BRANCH  18  32
ATOM     32  C19 UNL     1       2.136   0.967  -2.172  1.00  0.00     0.043 C   
ATOM     33  C20 UNL     1       1.958   1.910  -3.378  1.00  0.00     0.010 C   
ATOM     34  C23 UNL     1       3.015   1.751  -1.188  1.00  0.00     0.010 C   
ATOM     35  C21 UNL     1       2.947   3.057  -3.176  1.00  0.00     0.001 C   
ATOM     36  C22 UNL     1       3.908   2.574  -2.102  1.00  0.00     0.001 C   
ENDBRANCH  18  32
ENDBRANCH   3  18
TORSDOF 9
