REMARK SMILES OC[C@H](c1cncc(F)c1)n1cc([C@@H]([NH2+]Cc2ccc3c(c2)OCO3)C2CCCC2)nn1
REMARK SMILES IDX 11 1 12 2 13 3 31 4 32 5 3 7 2 8 1 9 4 11 5 12 10 13 6 14
REMARK SMILES IDX 8 15 7 16 9 17 14 18 15 19 16 22 17 23 18 24 22 25 19 26
REMARK SMILES IDX 21 27 20 28 23 29 25 30 24 31 26 32 27 33 30 34 28 35 29 36
REMARK H PARENT 12 6 1 10 15 20 15 21
ROOT
ATOM     1   N2  UNL     1       1.547  -0.502   1.826  1.00  0.00    -0.202 N   
ATOM     2   C8  UNL     1       0.743   0.423   1.218  1.00  0.00     0.046 A   
ATOM     3   C9  UNL     1      -0.486  -0.190   1.142  1.00  0.00     0.127 A   
ATOM     4   N4  UNL     1      -0.395  -1.443   1.690  1.00  0.00    -0.132 NA  
ATOM     5   N5  UNL     1       0.852  -1.627   2.096  1.00  0.00    -0.075 NA  
ATOM     6   H8  UNL     1       1.113   1.387   0.892  1.00  0.00     0.083 HD  
ENDROOT
BRANCH   1   7
ATOM     7   C2  UNL     1       2.987  -0.443   2.082  1.00  0.00     0.157 C   
BRANCH   7   8
ATOM     8   C1  UNL     1       3.326   0.556   3.207  1.00  0.00     0.186 C   
BRANCH   8   9
ATOM     9   O1  UNL     1       2.907   1.888   2.913  1.00  0.00    -0.394 OA  
ATOM     10  H1  UNL     1       3.195   2.451   3.657  1.00  0.00     0.210 HD  
ENDBRANCH   8   9
ENDBRANCH   7   8
BRANCH   7  11
ATOM     11  C3  UNL     1       3.734  -0.297   0.768  1.00  0.00    -0.002 A   
ATOM     12  C4  UNL     1       4.173   0.926   0.264  1.00  0.00     0.117 A   
ATOM     13  C7  UNL     1       3.958  -1.429  -0.035  1.00  0.00     0.048 A   
ATOM     14  N1  UNL     1       4.790   1.082  -0.932  1.00  0.00    -0.261 NA  
ATOM     15  C6  UNL     1       4.592  -1.291  -1.263  1.00  0.00     0.141 A   
ATOM     16  C5  UNL     1       4.990  -0.034  -1.671  1.00  0.00     0.150 A   
ATOM     17  F1  UNL     1       4.798  -2.362  -2.036  1.00  0.00    -0.205 F   
ENDBRANCH   7  11
ENDBRANCH   1   7
BRANCH   3  18
ATOM     18  C10 UNL     1      -1.756   0.263   0.502  1.00  0.00     0.117 C   
BRANCH  18  19
ATOM     19  N3  UNL     1      -2.449  -0.890  -0.201  1.00  0.00     0.249 N   
ATOM     20  H10 UNL     1      -3.354  -0.577  -0.561  1.00  0.00     0.199 HD  
ATOM     21  H11 UNL     1      -2.629  -1.605   0.516  1.00  0.00     0.199 HD  
BRANCH  19  22
ATOM     22  C11 UNL     1      -1.690  -1.567  -1.299  1.00  0.00     0.164 C   
BRANCH  22  23
ATOM     23  C12 UNL     1      -1.216  -0.633  -2.377  1.00  0.00    -0.002 A   
ATOM     24  C13 UNL     1      -2.135  -0.029  -3.268  1.00  0.00     0.012 A   
ATOM     25  C17 UNL     1       0.153  -0.327  -2.483  1.00  0.00     0.045 A   
ATOM     26  C14 UNL     1      -1.699   0.877  -4.242  1.00  0.00     0.037 A   
ATOM     27  C16 UNL     1       0.548   0.571  -3.451  1.00  0.00     0.109 A   
ATOM     28  C15 UNL     1      -0.351   1.159  -4.304  1.00  0.00     0.108 A   
ATOM     29  O2  UNL     1       1.824   0.979  -3.676  1.00  0.00    -0.316 OA  
ATOM     30  O3  UNL     1       0.244   2.017  -5.173  1.00  0.00    -0.316 OA  
ATOM     31  C18 UNL     1       1.629   1.893  -4.778  1.00  0.00     0.337 C   
ENDBRANCH  22  23
ENDBRANCH  19  22
ENDBRANCH  18  19
BRANCH  18  32
ATOM     32  C19 UNL     1      -2.774   0.897   1.473  1.00  0.00     0.043 C   
ATOM     33  C20 UNL     1      -2.301   2.197   2.143  1.00  0.00     0.010 C   
ATOM     34  C23 UNL     1      -3.238   0.028   2.645  1.00  0.00     0.010 C   
ATOM     35  C21 UNL     1      -3.011   2.258   3.498  1.00  0.00     0.001 C   
ATOM     36  C22 UNL     1      -3.920   1.038   3.555  1.00  0.00     0.001 C   
ENDBRANCH  18  32
ENDBRANCH   3  18
TORSDOF 9
