REMARK SMILES CC(C)C[C@H]([NH2+]Cc1ccc2c(c1)OCO2)c1cn(Cc2cnc(Cl)cn2)nn1
REMARK SMILES IDX 17 1 18 2 19 3 28 4 29 5 5 7 4 8 2 9 1 10 3 11 6 12 7 15
REMARK SMILES IDX 8 16 9 17 13 18 10 19 12 20 11 21 14 22 16 23 15 24 20 25
REMARK SMILES IDX 21 26 22 27 27 28 23 29 26 30 24 31 25 32
REMARK H PARENT 18 6 6 13 6 14
ROOT
ATOM     1   C14 UNL     1      -0.754  -0.246   0.114  1.00  0.00     0.127 A   
ATOM     2   C15 UNL     1      -1.931   0.208  -0.440  1.00  0.00     0.046 A   
ATOM     3   N2  UNL     1      -2.457   1.023   0.524  1.00  0.00    -0.206 N   
ATOM     4   N5  UNL     1      -1.622   1.125   1.576  1.00  0.00    -0.076 NA  
ATOM     5   N6  UNL     1      -0.583   0.340   1.343  1.00  0.00    -0.132 NA  
ATOM     6   H20 UNL     1      -2.447   0.007  -1.369  1.00  0.00     0.083 HD  
ENDROOT
BRANCH   1   7
ATOM     7   C5  UNL     1       0.287  -1.183  -0.405  1.00  0.00     0.114 C   
BRANCH   7   8
ATOM     8   C4  UNL     1       0.054  -2.638   0.049  1.00  0.00     0.064 C   
BRANCH   8   9
ATOM     9   C2  UNL     1      -1.243  -3.295  -0.469  1.00  0.00    -0.012 C   
ATOM     10  C1  UNL     1      -1.371  -4.707   0.108  1.00  0.00     0.007 C   
ATOM     11  C3  UNL     1      -1.296  -3.357  -1.996  1.00  0.00     0.007 C   
ENDBRANCH   8   9
ENDBRANCH   7   8
BRANCH   7  12
ATOM     12  N1  UNL     1       1.646  -0.777   0.117  1.00  0.00     0.249 N   
ATOM     13  H11 UNL     1       1.538  -0.605   1.129  1.00  0.00     0.199 HD  
ATOM     14  H12 UNL     1       2.325  -1.541   0.027  1.00  0.00     0.199 HD  
BRANCH  12  15
ATOM     15  C6  UNL     1       2.221   0.456  -0.486  1.00  0.00     0.164 C   
BRANCH  15  16
ATOM     16  C7  UNL     1       3.535   0.791   0.161  1.00  0.00    -0.002 A   
ATOM     17  C8  UNL     1       3.566   1.569   1.343  1.00  0.00     0.012 A   
ATOM     18  C12 UNL     1       4.735   0.287  -0.369  1.00  0.00     0.045 A   
ATOM     19  C9  UNL     1       4.777   1.854   1.984  1.00  0.00     0.037 A   
ATOM     20  C11 UNL     1       5.910   0.585   0.289  1.00  0.00     0.109 A   
ATOM     21  C10 UNL     1       5.932   1.346   1.431  1.00  0.00     0.108 A   
ATOM     22  O1  UNL     1       7.151   0.178  -0.088  1.00  0.00    -0.316 OA  
ATOM     23  O2  UNL     1       7.189   1.517   1.917  1.00  0.00    -0.316 OA  
ATOM     24  C13 UNL     1       7.964   0.791   0.939  1.00  0.00     0.337 C   
ENDBRANCH  15  16
ENDBRANCH  12  15
ENDBRANCH   7  12
ENDBRANCH   1   7
BRANCH   3  25
ATOM     25  C16 UNL     1      -3.729   1.719   0.519  1.00  0.00     0.191 C   
BRANCH  25  26
ATOM     26  C17 UNL     1      -4.832   0.771   0.885  1.00  0.00     0.078 A   
ATOM     27  C18 UNL     1      -5.090   0.449   2.216  1.00  0.00     0.138 A   
ATOM     28  N4  UNL     1      -5.541   0.204  -0.129  1.00  0.00    -0.255 NA  
ATOM     29  N3  UNL     1      -6.055  -0.425   2.588  1.00  0.00    -0.241 NA  
ATOM     30  C20 UNL     1      -6.521  -0.660   0.250  1.00  0.00     0.152 A   
ATOM     31  C19 UNL     1      -6.768  -0.964   1.577  1.00  0.00     0.147 A   
ATOM     32  CL1 UNL     1      -7.989  -2.067   2.043  1.00  0.00    -0.061 Cl  
ENDBRANCH  25  26
ENDBRANCH   3  25
TORSDOF 8
