REMARK SMILES COc1cnc(Cn2cc([C@@H]([NH2+]Cc3ccc4c(c3)OCO4)C(C)(C)C)nn2)c(C)c1
REMARK SMILES IDX 8 1 9 2 10 3 27 4 28 5 7 7 6 8 3 9 4 10 31 11 5 12 29 13
REMARK SMILES IDX 30 14 2 15 1 16 11 17 12 18 13 21 14 22 15 23 19 24 16 25
REMARK SMILES IDX 18 26 17 27 20 28 22 29 21 30 23 31 24 32 25 33 26 34
REMARK H PARENT 9 6 12 19 12 20
ROOT
ATOM     1   N2  UNL     1       1.942   0.978   1.599  1.00  0.00    -0.206 N   
ATOM     2   C6  UNL     1       1.029   1.793   0.986  1.00  0.00     0.046 A   
ATOM     3   C7  UNL     1      -0.105   1.661   1.752  1.00  0.00     0.127 A   
ATOM     4   N4  UNL     1       0.147   0.787   2.782  1.00  0.00    -0.132 NA  
ATOM     5   N5  UNL     1       1.403   0.384   2.683  1.00  0.00    -0.076 NA  
ATOM     6   H7  UNL     1       1.267   2.346   0.086  1.00  0.00     0.083 HD  
ENDROOT
BRANCH   1   7
ATOM     7   C5  UNL     1       3.333   0.761   1.246  1.00  0.00     0.190 C   
BRANCH   7   8
ATOM     8   C4  UNL     1       3.442   0.002  -0.051  1.00  0.00     0.063 A   
ATOM     9   C2  UNL     1       3.646  -1.230  -2.524  1.00  0.00     0.093 A   
ATOM     10  C3  UNL     1       3.571   0.145  -2.364  1.00  0.00     0.144 A   
ATOM     11  C23 UNL     1       3.603  -2.005  -1.371  1.00  0.00     0.040 A   
ATOM     12  N1  UNL     1       3.463   0.774  -1.169  1.00  0.00    -0.257 NA  
ATOM     13  C21 UNL     1       3.497  -1.398  -0.107  1.00  0.00    -0.025 A   
ATOM     14  C22 UNL     1       3.456  -2.259   1.122  1.00  0.00     0.046 C   
BRANCH   9  15
ATOM     15  O1  UNL     1       3.735  -1.682  -3.807  1.00  0.00    -0.348 OA  
ATOM     16  C1  UNL     1       3.934  -3.080  -3.982  1.00  0.00     0.203 C   
ENDBRANCH   9  15
ENDBRANCH   7   8
ENDBRANCH   1   7
BRANCH   3  17
ATOM     17  C8  UNL     1      -1.488   2.214   1.587  1.00  0.00     0.120 C   
BRANCH  17  18
ATOM     18  N3  UNL     1      -2.470   1.151   2.053  1.00  0.00     0.250 N   
ATOM     19  H9  UNL     1      -3.178   1.542   2.679  1.00  0.00     0.199 HD  
ATOM     20  H10 UNL     1      -1.921   0.506   2.644  1.00  0.00     0.199 HD  
BRANCH  18  21
ATOM     21  C9  UNL     1      -3.142   0.356   0.990  1.00  0.00     0.164 C   
BRANCH  21  22
ATOM     22  C10 UNL     1      -2.205  -0.412   0.100  1.00  0.00    -0.002 A   
ATOM     23  C11 UNL     1      -1.441  -1.490   0.612  1.00  0.00     0.012 A   
ATOM     24  C15 UNL     1      -2.073  -0.058  -1.254  1.00  0.00     0.045 A   
ATOM     25  C12 UNL     1      -0.558  -2.201  -0.209  1.00  0.00     0.037 A   
ATOM     26  C14 UNL     1      -1.197  -0.782  -2.035  1.00  0.00     0.109 A   
ATOM     27  C13 UNL     1      -0.461  -1.824  -1.530  1.00  0.00     0.108 A   
ATOM     28  O2  UNL     1      -0.963  -0.572  -3.357  1.00  0.00    -0.316 OA  
ATOM     29  O3  UNL     1       0.326  -2.408  -2.471  1.00  0.00    -0.316 OA  
ATOM     30  C16 UNL     1      -0.002  -1.615  -3.633  1.00  0.00     0.337 C   
ENDBRANCH  21  22
ENDBRANCH  18  21
ENDBRANCH  17  18
BRANCH  17  31
ATOM     31  C17 UNL     1      -1.738   3.565   2.341  1.00  0.00     0.010 C   
ATOM     32  C18 UNL     1      -1.584   3.437   3.870  1.00  0.00     0.017 C   
ATOM     33  C19 UNL     1      -3.159   4.091   2.032  1.00  0.00     0.017 C   
ATOM     34  C20 UNL     1      -0.744   4.640   1.845  1.00  0.00     0.017 C   
ENDBRANCH  17  31
ENDBRANCH   3  17
TORSDOF 8
