REMARK SMILES CC(C)C[C@H]([NH2+]Cc1ccc2c(c1)OCO2)c1cn(Cc2c[nH]nc2C(C)(C)C)nn1
REMARK SMILES IDX 17 1 18 2 19 3 30 4 31 5 5 7 4 8 2 9 1 10 3 11 6 12 7 15
REMARK SMILES IDX 8 16 9 17 13 18 10 19 12 20 11 21 14 22 16 23 15 24 20 25
REMARK SMILES IDX 21 26 22 27 25 28 23 29 24 30 26 32 27 33 28 34 29 35
REMARK H PARENT 18 6 6 13 6 14 23 31
ROOT
ATOM     1   C14 UNL     1       0.560   1.297   0.194  1.00  0.00     0.127 A   
ATOM     2   C15 UNL     1       1.225   0.357   0.949  1.00  0.00     0.046 A   
ATOM     3   N2  UNL     1       0.689   0.494   2.201  1.00  0.00    -0.208 N   
ATOM     4   N5  UNL     1      -0.190   1.516   2.228  1.00  0.00    -0.076 NA  
ATOM     5   N6  UNL     1      -0.292   2.001   1.001  1.00  0.00    -0.132 NA  
ATOM     6   H20 UNL     1       1.953  -0.405   0.706  1.00  0.00     0.083 HD  
ENDROOT
BRANCH   1   7
ATOM     7   C5  UNL     1       0.571   1.542  -1.274  1.00  0.00     0.114 C   
BRANCH   7   8
ATOM     8   C4  UNL     1       1.245   2.874  -1.653  1.00  0.00     0.064 C   
BRANCH   8   9
ATOM     9   C2  UNL     1       2.740   2.979  -1.280  1.00  0.00    -0.012 C   
ATOM     10  C1  UNL     1       3.589   1.912  -1.970  1.00  0.00     0.007 C   
ATOM     11  C3  UNL     1       3.266   4.371  -1.646  1.00  0.00     0.007 C   
ENDBRANCH   8   9
ENDBRANCH   7   8
BRANCH   7  12
ATOM     12  N1  UNL     1      -0.848   1.600  -1.810  1.00  0.00     0.249 N   
ATOM     13  H11 UNL     1      -0.830   1.837  -2.805  1.00  0.00     0.199 HD  
ATOM     14  H12 UNL     1      -1.315   2.374  -1.318  1.00  0.00     0.199 HD  
BRANCH  12  15
ATOM     15  C6  UNL     1      -1.693   0.381  -1.607  1.00  0.00     0.164 C   
BRANCH  15  16
ATOM     16  C7  UNL     1      -1.094  -0.876  -2.172  1.00  0.00    -0.002 A   
ATOM     17  C8  UNL     1      -0.715  -1.932  -1.307  1.00  0.00     0.012 A   
ATOM     18  C12 UNL     1      -0.891  -1.013  -3.556  1.00  0.00     0.045 A   
ATOM     19  C9  UNL     1      -0.130  -3.100  -1.806  1.00  0.00     0.037 A   
ATOM     20  C11 UNL     1      -0.309  -2.176  -4.015  1.00  0.00     0.109 A   
ATOM     21  C10 UNL     1       0.062  -3.190  -3.167  1.00  0.00     0.108 A   
ATOM     22  O1  UNL     1      -0.035  -2.460  -5.315  1.00  0.00    -0.316 OA  
ATOM     23  O2  UNL     1       0.617  -4.240  -3.825  1.00  0.00    -0.316 OA  
ATOM     24  C13 UNL     1       0.518  -3.791  -5.194  1.00  0.00     0.337 C   
ENDBRANCH  15  16
ENDBRANCH  12  15
ENDBRANCH   7  12
ENDBRANCH   1   7
BRANCH   3  25
ATOM     25  C16 UNL     1       0.917  -0.324   3.387  1.00  0.00     0.172 C   
BRANCH  25  26
ATOM     26  C17 UNL     1       0.801  -1.777   3.059  1.00  0.00     0.011 A   
ATOM     27  C18 UNL     1       1.849  -2.605   2.697  1.00  0.00     0.099 A   
ATOM     28  C19 UNL     1      -0.348  -2.637   3.049  1.00  0.00     0.070 A   
ATOM     29  N3  UNL     1       1.315  -3.834   2.472  1.00  0.00    -0.245 N   
ATOM     30  N4  UNL     1      -0.010  -3.860   2.615  1.00  0.00    -0.188 NA  
ATOM     31  H24 UNL     1       1.789  -4.694   2.210  1.00  0.00     0.175 HD  
BRANCH  28  32
ATOM     32  C20 UNL     1      -1.798  -2.379   3.473  1.00  0.00     0.006 C   
ATOM     33  C21 UNL     1      -2.730  -3.546   3.058  1.00  0.00     0.017 C   
ATOM     34  C22 UNL     1      -2.372  -1.105   2.829  1.00  0.00     0.017 C   
ATOM     35  C23 UNL     1      -1.872  -2.248   5.007  1.00  0.00     0.017 C   
ENDBRANCH  28  32
ENDBRANCH  25  26
ENDBRANCH   3  25
TORSDOF 9
