REMARK SMILES O=c1ccccn1CCn1cc([C@@H]([NH2+]Cc2ccc3c(c2)OCO3)C2CCCC2)nn1
REMARK SMILES IDX 10 1 11 2 12 3 30 4 31 5 9 7 8 8 7 9 2 10 3 11 4 12 6 13
REMARK SMILES IDX 5 14 1 15 13 16 14 17 15 20 16 21 17 22 21 23 18 24 20 25
REMARK SMILES IDX 19 26 22 27 24 28 23 29 25 30 26 31 29 32 27 33 28 34
REMARK H PARENT 11 6 14 18 14 19
ROOT
ATOM     1   N2  UNL     1       3.093   0.083   0.228  1.00  0.00    -0.211 N   
ATOM     2   C8  UNL     1       2.048   0.491   1.007  1.00  0.00     0.045 A   
ATOM     3   C9  UNL     1       1.287   1.249   0.140  1.00  0.00     0.127 A   
ATOM     4   N4  UNL     1       2.010   1.468  -1.005  1.00  0.00    -0.132 NA  
ATOM     5   N5  UNL     1       3.113   0.742  -0.941  1.00  0.00    -0.076 NA  
ATOM     6   H9  UNL     1       1.868   0.059   1.979  1.00  0.00     0.083 HD  
ENDROOT
BRANCH   1   7
ATOM     7   C7  UNL     1       3.878  -1.123   0.392  1.00  0.00     0.153 C   
BRANCH   7   8
ATOM     8   C6  UNL     1       3.119  -2.349  -0.141  1.00  0.00     0.135 C   
BRANCH   8   9
ATOM     9   N1  UNL     1       2.213  -2.965   0.851  1.00  0.00    -0.273 N   
ATOM     10  C1  UNL     1       0.851  -2.653   0.874  1.00  0.00     0.242 A   
ATOM     11  C2  UNL     1       0.029  -3.372   1.890  1.00  0.00     0.069 A   
ATOM     12  C3  UNL     1       0.605  -4.227   2.745  1.00  0.00     0.007 A   
ATOM     13  C5  UNL     1       2.766  -3.866   1.755  1.00  0.00     0.078 A   
ATOM     14  C4  UNL     1       2.019  -4.476   2.682  1.00  0.00     0.016 A   
ATOM     15  O1  UNL     1       0.286  -1.823   0.155  1.00  0.00    -0.272 OA  
ENDBRANCH   8   9
ENDBRANCH   7   8
ENDBRANCH   1   7
BRANCH   3  16
ATOM     16  C10 UNL     1      -0.161   1.623   0.157  1.00  0.00     0.117 C   
BRANCH  16  17
ATOM     17  N3  UNL     1      -0.968   0.505  -0.475  1.00  0.00     0.249 N   
ATOM     18  H11 UNL     1      -0.613  -0.392  -0.084  1.00  0.00     0.199 HD  
ATOM     19  H12 UNL     1      -1.955   0.578  -0.222  1.00  0.00     0.199 HD  
BRANCH  17  20
ATOM     20  C11 UNL     1      -0.859   0.347  -1.955  1.00  0.00     0.164 C   
BRANCH  20  21
ATOM     21  C12 UNL     1      -1.502   1.470  -2.720  1.00  0.00    -0.002 A   
ATOM     22  C13 UNL     1      -0.704   2.466  -3.332  1.00  0.00     0.012 A   
ATOM     23  C17 UNL     1      -2.902   1.551  -2.815  1.00  0.00     0.045 A   
ATOM     24  C14 UNL     1      -1.289   3.529  -4.030  1.00  0.00     0.037 A   
ATOM     25  C16 UNL     1      -3.446   2.608  -3.515  1.00  0.00     0.109 A   
ATOM     26  C15 UNL     1      -2.663   3.570  -4.104  1.00  0.00     0.108 A   
ATOM     27  O2  UNL     1      -4.773   2.830  -3.705  1.00  0.00    -0.316 OA  
ATOM     28  O3  UNL     1      -3.399   4.519  -4.740  1.00  0.00    -0.316 OA  
ATOM     29  C18 UNL     1      -4.736   4.015  -4.534  1.00  0.00     0.337 C   
ENDBRANCH  20  21
ENDBRANCH  17  20
ENDBRANCH  16  17
BRANCH  16  30
ATOM     30  C19 UNL     1      -0.789   1.957   1.525  1.00  0.00     0.043 C   
ATOM     31  C20 UNL     1      -0.022   3.004   2.354  1.00  0.00     0.010 C   
ATOM     32  C23 UNL     1      -1.061   0.785   2.481  1.00  0.00     0.010 C   
ATOM     33  C21 UNL     1       0.057   2.443   3.772  1.00  0.00     0.001 C   
ATOM     34  C22 UNL     1      -1.078   1.438   3.855  1.00  0.00     0.001 C   
ENDBRANCH  16  30
ENDBRANCH   3  16
TORSDOF 8
