REMARK SMILES CN(C)c1ncccc1CCn1cc([C@@H]([NH2+]Cc2ccc3c(c2)OCO3)C2CCCCC2)nn1
REMARK SMILES IDX 12 1 13 2 14 3 33 4 34 5 11 7 10 8 9 9 4 10 5 11 6 12 8 13
REMARK SMILES IDX 7 14 2 15 1 16 3 17 15 18 16 19 17 22 18 23 19 24 23 25
REMARK SMILES IDX 20 26 22 27 21 28 24 29 26 30 25 31 27 32 28 33 32 34 29 35
REMARK SMILES IDX 31 36 30 37
REMARK H PARENT 13 6 16 20 16 21
ROOT
ATOM     1   N3  UNL     1      -2.309  -0.010  -1.392  1.00  0.00    -0.212 N   
ATOM     2   C10 UNL     1      -1.576  -0.719  -0.483  1.00  0.00     0.045 A   
ATOM     3   C11 UNL     1      -1.747  -0.028   0.693  1.00  0.00     0.127 A   
ATOM     4   N5  UNL     1      -2.575   1.044   0.470  1.00  0.00    -0.132 NA  
ATOM     5   N6  UNL     1      -2.906   1.048  -0.811  1.00  0.00    -0.076 NA  
ATOM     6   H14 UNL     1      -1.003  -1.593  -0.760  1.00  0.00     0.083 HD  
ENDROOT
BRANCH   1   7
ATOM     7   C9  UNL     1      -2.453  -0.259  -2.810  1.00  0.00     0.139 C   
BRANCH   7   8
ATOM     8   C8  UNL     1      -1.607   0.680  -3.674  1.00  0.00     0.060 C   
BRANCH   8   9
ATOM     9   C7  UNL     1      -0.123   0.679  -3.366  1.00  0.00    -0.006 A   
ATOM     10  C3  UNL     1       0.674  -0.478  -3.431  1.00  0.00     0.123 A   
ATOM     11  N2  UNL     1       1.975  -0.460  -3.062  1.00  0.00    -0.241 NA  
ATOM     12  C4  UNL     1       2.530   0.716  -2.701  1.00  0.00     0.113 A   
ATOM     13  C6  UNL     1       0.487   1.882  -2.977  1.00  0.00     0.009 A   
ATOM     14  C5  UNL     1       1.836   1.906  -2.650  1.00  0.00     0.021 A   
BRANCH  10  15
ATOM     15  N1  UNL     1       0.111  -1.694  -3.893  1.00  0.00    -0.322 N   
ATOM     16  C1  UNL     1       0.216  -1.727  -5.363  1.00  0.00     0.131 C   
ATOM     17  C2  UNL     1       0.773  -2.857  -3.284  1.00  0.00     0.131 C   
ENDBRANCH  10  15
ENDBRANCH   8   9
ENDBRANCH   7   8
ENDBRANCH   1   7
BRANCH   3  18
ATOM     18  C12 UNL     1      -1.147  -0.235   2.045  1.00  0.00     0.117 C   
BRANCH  18  19
ATOM     19  N4  UNL     1      -0.987   1.086   2.759  1.00  0.00     0.249 N   
ATOM     20  H16 UNL     1      -0.793   0.946   3.752  1.00  0.00     0.199 HD  
ATOM     21  H17 UNL     1      -1.898   1.561   2.683  1.00  0.00     0.199 HD  
BRANCH  19  22
ATOM     22  C13 UNL     1       0.030   2.020   2.189  1.00  0.00     0.164 C   
BRANCH  22  23
ATOM     23  C14 UNL     1       1.441   1.534   2.368  1.00  0.00    -0.002 A   
ATOM     24  C15 UNL     1       2.074   1.610   3.631  1.00  0.00     0.012 A   
ATOM     25  C19 UNL     1       2.134   0.974   1.280  1.00  0.00     0.045 A   
ATOM     26  C16 UNL     1       3.378   1.136   3.811  1.00  0.00     0.037 A   
ATOM     27  C18 UNL     1       3.419   0.520   1.489  1.00  0.00     0.109 A   
ATOM     28  C17 UNL     1       4.023   0.596   2.719  1.00  0.00     0.108 A   
ATOM     29  O1  UNL     1       4.223  -0.040   0.548  1.00  0.00    -0.316 OA  
ATOM     30  O2  UNL     1       5.284   0.091   2.710  1.00  0.00    -0.316 OA  
ATOM     31  C20 UNL     1       5.412  -0.307   1.328  1.00  0.00     0.337 C   
ENDBRANCH  22  23
ENDBRANCH  19  22
ENDBRANCH  18  19
BRANCH  18  32
ATOM     32  C21 UNL     1      -1.976  -1.224   2.910  1.00  0.00     0.043 C   
ATOM     33  C22 UNL     1      -3.349  -0.680   3.352  1.00  0.00     0.010 C   
ATOM     34  C26 UNL     1      -1.180  -1.711   4.138  1.00  0.00     0.010 C   
ATOM     35  C23 UNL     1      -4.130  -1.715   4.160  1.00  0.00     0.001 C   
ATOM     36  C25 UNL     1      -1.965  -2.745   4.944  1.00  0.00     0.001 C   
ATOM     37  C24 UNL     1      -3.332  -2.212   5.361  1.00  0.00     0.000 C   
ENDBRANCH  18  32
ENDBRANCH   3  18
TORSDOF 9
