REMARK SMILES CC(C)C[C@H]([NH2+]Cc1ccc2c(c1)OCO2)c1cn(Cc2cnn[nH]2)nn1
REMARK SMILES IDX 17 1 18 2 19 3 26 4 27 5 5 7 4 8 2 9 1 10 3 11 6 12 7 15
REMARK SMILES IDX 8 16 9 17 13 18 10 19 12 20 11 21 14 22 16 23 15 24 20 25
REMARK SMILES IDX 21 26 22 27 25 28 23 29 24 30
REMARK H PARENT 18 6 6 13 6 14 25 31
ROOT
ATOM     1   C14 UNL     1       0.885   0.201   1.119  1.00  0.00     0.127 A   
ATOM     2   C15 UNL     1       0.336   1.183   1.913  1.00  0.00     0.046 A   
ATOM     3   N2  UNL     1       0.850   2.343   1.404  1.00  0.00    -0.206 N   
ATOM     4   N6  UNL     1       1.661   2.093   0.355  1.00  0.00    -0.076 NA  
ATOM     5   N7  UNL     1       1.689   0.783   0.171  1.00  0.00    -0.132 NA  
ATOM     6   H20 UNL     1      -0.353   1.169   2.747  1.00  0.00     0.083 HD  
ENDROOT
BRANCH   1   7
ATOM     7   C5  UNL     1       0.703  -1.285   1.107  1.00  0.00     0.114 C   
BRANCH   7   8
ATOM     8   C4  UNL     1       1.772  -1.984   1.967  1.00  0.00     0.064 C   
BRANCH   8   9
ATOM     9   C2  UNL     1       1.600  -3.509   2.134  1.00  0.00    -0.012 C   
ATOM     10  C1  UNL     1       0.290  -3.875   2.833  1.00  0.00     0.007 C   
ATOM     11  C3  UNL     1       2.782  -4.075   2.928  1.00  0.00     0.007 C   
ENDBRANCH   8   9
ENDBRANCH   7   8
BRANCH   7  12
ATOM     12  N1  UNL     1       0.805  -1.784  -0.319  1.00  0.00     0.249 N   
ATOM     13  H11 UNL     1       1.492  -2.539  -0.399  1.00  0.00     0.199 HD  
ATOM     14  H12 UNL     1       1.214  -1.005  -0.861  1.00  0.00     0.199 HD  
BRANCH  12  15
ATOM     15  C6  UNL     1      -0.469  -2.191  -0.971  1.00  0.00     0.164 C   
BRANCH  15  16
ATOM     16  C7  UNL     1      -1.502  -1.100  -1.028  1.00  0.00    -0.002 A   
ATOM     17  C8  UNL     1      -2.709  -1.224  -0.299  1.00  0.00     0.012 A   
ATOM     18  C12 UNL     1      -1.275   0.057  -1.794  1.00  0.00     0.045 A   
ATOM     19  C9  UNL     1      -3.673  -0.211  -0.324  1.00  0.00     0.037 A   
ATOM     20  C11 UNL     1      -2.246   1.037  -1.796  1.00  0.00     0.109 A   
ATOM     21  C10 UNL     1      -3.411   0.907  -1.083  1.00  0.00     0.108 A   
ATOM     22  O1  UNL     1      -2.183   2.210  -2.478  1.00  0.00    -0.316 OA  
ATOM     23  O2  UNL     1      -4.232   1.978  -1.229  1.00  0.00    -0.316 OA  
ATOM     24  C13 UNL     1      -3.468   2.789  -2.150  1.00  0.00     0.337 C   
ENDBRANCH  15  16
ENDBRANCH  12  15
ENDBRANCH   7  12
ENDBRANCH   1   7
BRANCH   3  25
ATOM     25  C16 UNL     1       0.618   3.710   1.845  1.00  0.00     0.188 C   
BRANCH  25  26
ATOM     26  C17 UNL     1      -0.330   4.405   0.948  1.00  0.00     0.066 A   
ATOM     27  C18 UNL     1      -1.550   5.007   1.155  1.00  0.00     0.159 A   
ATOM     28  N5  UNL     1      -0.099   4.600  -0.388  1.00  0.00    -0.221 N   
ATOM     29  N3  UNL     1      -2.009   5.520  -0.022  1.00  0.00    -0.141 NA  
ATOM     30  N4  UNL     1      -1.110   5.265  -0.962  1.00  0.00    -0.079 NA  
ATOM     31  H24 UNL     1       0.686   4.308  -0.964  1.00  0.00     0.177 HD  
ENDBRANCH  25  26
ENDBRANCH   3  25
TORSDOF 8
