REMARK SMILES COc1cccc(Cn2cc([C@@H]([NH2+]Cc3ccc4c(c3)OCO4)C(C)C)nn2)c1O
REMARK SMILES IDX 9 1 10 2 11 3 27 4 28 5 8 7 7 8 3 9 4 10 29 11 5 12 6 13
REMARK SMILES IDX 2 14 1 15 30 16 12 18 13 19 14 22 15 23 16 24 20 25 17 26
REMARK SMILES IDX 19 27 18 28 21 29 23 30 22 31 24 32 25 33 26 34
REMARK H PARENT 10 6 30 17 13 20 13 21
ROOT
ATOM     1   N1  UNL     1      -0.541  -0.204  -1.902  1.00  0.00    -0.208 N   
ATOM     2   C8  UNL     1      -0.865  -1.121  -0.940  1.00  0.00     0.046 A   
ATOM     3   C9  UNL     1      -1.288  -0.355   0.122  1.00  0.00     0.127 A   
ATOM     4   N3  UNL     1      -1.215   0.971  -0.222  1.00  0.00    -0.132 NA  
ATOM     5   N4  UNL     1      -0.762   1.051  -1.462  1.00  0.00    -0.076 NA  
ATOM     6   H9  UNL     1      -0.744  -2.184  -1.097  1.00  0.00     0.083 HD  
ENDROOT
BRANCH   1   7
ATOM     7   C7  UNL     1      -0.041  -0.447  -3.244  1.00  0.00     0.172 C   
BRANCH   7   8
ATOM     8   C6  UNL     1       1.463  -0.433  -3.273  1.00  0.00     0.004 A   
ATOM     9   C2  UNL     1       3.613  -1.569  -2.976  1.00  0.00     0.105 A   
ATOM     10  C3  UNL     1       4.282  -0.398  -3.323  1.00  0.00     0.036 A   
ATOM     11  C22 UNL     1       2.211  -1.569  -2.949  1.00  0.00     0.106 A   
ATOM     12  C4  UNL     1       3.554   0.753  -3.638  1.00  0.00     0.003 A   
ATOM     13  C5  UNL     1       2.157   0.738  -3.612  1.00  0.00     0.008 A   
BRANCH   9  14
ATOM     14  O1  UNL     1       4.194  -2.764  -2.638  1.00  0.00    -0.347 OA  
ATOM     15  C1  UNL     1       5.611  -2.842  -2.773  1.00  0.00     0.203 C   
ENDBRANCH   9  14
BRANCH  11  16
ATOM     16  O4  UNL     1       1.554  -2.721  -2.595  1.00  0.00    -0.358 OA  
ATOM     17  H27 UNL     1       2.265  -3.390  -2.505  1.00  0.00     0.218 HD  
ENDBRANCH  11  16
ENDBRANCH   7   8
ENDBRANCH   1   7
BRANCH   3  18
ATOM     18  C10 UNL     1      -1.702  -0.730   1.507  1.00  0.00     0.117 C   
BRANCH  18  19
ATOM     19  N2  UNL     1      -1.258   0.342   2.472  1.00  0.00     0.249 N   
ATOM     20  H11 UNL     1      -1.784   0.305   3.350  1.00  0.00     0.199 HD  
ATOM     21  H12 UNL     1      -1.487   1.246   2.031  1.00  0.00     0.199 HD  
BRANCH  19  22
ATOM     22  C11 UNL     1       0.201   0.360   2.768  1.00  0.00     0.164 C   
BRANCH  22  23
ATOM     23  C12 UNL     1       0.546   1.548   3.620  1.00  0.00    -0.002 A   
ATOM     24  C13 UNL     1       0.866   2.787   3.012  1.00  0.00     0.012 A   
ATOM     25  C17 UNL     1       0.497   1.456   5.021  1.00  0.00     0.045 A   
ATOM     26  C14 UNL     1       1.145   3.917   3.788  1.00  0.00     0.037 A   
ATOM     27  C16 UNL     1       0.776   2.590   5.756  1.00  0.00     0.109 A   
ATOM     28  C15 UNL     1       1.091   3.786   5.158  1.00  0.00     0.108 A   
ATOM     29  O2  UNL     1       0.770   2.674   7.112  1.00  0.00    -0.316 OA  
ATOM     30  O3  UNL     1       1.324   4.772   6.061  1.00  0.00    -0.316 OA  
ATOM     31  C18 UNL     1       1.139   4.059   7.303  1.00  0.00     0.337 C   
ENDBRANCH  22  23
ENDBRANCH  19  22
ENDBRANCH  18  19
BRANCH  18  32
ATOM     32  C19 UNL     1      -3.227  -0.948   1.681  1.00  0.00     0.037 C   
ATOM     33  C20 UNL     1      -4.082   0.280   1.346  1.00  0.00     0.014 C   
ATOM     34  C21 UNL     1      -3.720  -2.156   0.877  1.00  0.00     0.014 C   
ENDBRANCH  18  32
ENDBRANCH   3  18
TORSDOF 9
