REMARK SMILES COCc1cccc(-n2cc([C@@H]([NH2+]Cc3ccc4c(c3)OCO4)C3CCCCC3)nn2)c1
REMARK SMILES IDX 9 1 10 2 11 3 30 4 31 5 8 6 4 7 5 8 32 9 6 10 7 11 3 12 2 13
REMARK SMILES IDX 1 14 12 15 13 16 14 19 15 20 16 21 20 22 17 23 19 24 18 25
REMARK SMILES IDX 21 26 23 27 22 28 24 29 25 30 29 31 26 32 28 33 27 34
REMARK H PARENT 13 17 13 18
ROOT
ATOM     1   N1  UNL     1      -1.113  -1.506   0.519  1.00  0.00    -0.181 N   
ATOM     2   C8  UNL     1      -0.156  -0.541   0.769  1.00  0.00     0.135 A   
ATOM     3   C9  UNL     1      -0.780   0.660   0.516  1.00  0.00     0.127 A   
ATOM     4   N3  UNL     1      -2.061   0.420   0.110  1.00  0.00    -0.131 NA  
ATOM     5   N4  UNL     1      -2.253  -0.888   0.113  1.00  0.00    -0.071 NA  
ENDROOT
BRANCH   1   6
ATOM     6   C7  UNL     1      -1.006  -2.915   0.608  1.00  0.00     0.058 A   
ATOM     7   C3  UNL     1      -2.049  -5.111   0.391  1.00  0.00    -0.020 A   
ATOM     8   C4  UNL     1      -0.844  -5.707   0.773  1.00  0.00     0.006 A   
ATOM     9   C25 UNL     1      -2.123  -3.711   0.309  1.00  0.00     0.032 A   
ATOM     10  C5  UNL     1       0.272  -4.921   1.060  1.00  0.00     0.002 A   
ATOM     11  C6  UNL     1       0.196  -3.528   0.982  1.00  0.00     0.026 A   
BRANCH   7  12
ATOM     12  C2  UNL     1      -3.266  -5.953   0.088  1.00  0.00     0.195 C   
BRANCH  12  13
ATOM     13  O1  UNL     1      -3.791  -5.647  -1.202  1.00  0.00    -0.380 OA  
ATOM     14  C1  UNL     1      -3.135  -6.362  -2.241  1.00  0.00     0.195 C   
ENDBRANCH  12  13
ENDBRANCH   7  12
ENDBRANCH   1   6
BRANCH   3  15
ATOM     15  C10 UNL     1      -0.264   2.060   0.547  1.00  0.00     0.117 C   
BRANCH  15  16
ATOM     16  N2  UNL     1      -0.838   2.871  -0.599  1.00  0.00     0.249 N   
ATOM     17  H11 UNL     1      -0.595   3.858  -0.480  1.00  0.00     0.199 HD  
ATOM     18  H12 UNL     1      -1.862   2.796  -0.531  1.00  0.00     0.199 HD  
BRANCH  16  19
ATOM     19  C11 UNL     1      -0.474   2.439  -1.983  1.00  0.00     0.164 C   
BRANCH  19  20
ATOM     20  C12 UNL     1       1.009   2.387  -2.225  1.00  0.00    -0.002 A   
ATOM     21  C13 UNL     1       1.647   1.140  -2.435  1.00  0.00     0.012 A   
ATOM     22  C17 UNL     1       1.777   3.564  -2.212  1.00  0.00     0.045 A   
ATOM     23  C14 UNL     1       3.031   1.062  -2.613  1.00  0.00     0.037 A   
ATOM     24  C16 UNL     1       3.141   3.451  -2.386  1.00  0.00     0.109 A   
ATOM     25  C15 UNL     1       3.750   2.236  -2.578  1.00  0.00     0.108 A   
ATOM     26  O2  UNL     1       4.026   4.481  -2.381  1.00  0.00    -0.316 OA  
ATOM     27  O3  UNL     1       5.096   2.347  -2.721  1.00  0.00    -0.316 OA  
ATOM     28  C18 UNL     1       5.269   3.777  -2.611  1.00  0.00     0.337 C   
ENDBRANCH  19  20
ENDBRANCH  16  19
ENDBRANCH  15  16
BRANCH  15  29
ATOM     29  C19 UNL     1      -0.549   2.822   1.871  1.00  0.00     0.043 C   
ATOM     30  C20 UNL     1      -2.045   2.983   2.209  1.00  0.00     0.010 C   
ATOM     31  C24 UNL     1       0.195   2.187   3.063  1.00  0.00     0.010 C   
ATOM     32  C21 UNL     1      -2.248   3.781   3.497  1.00  0.00     0.001 C   
ATOM     33  C23 UNL     1      -0.009   2.991   4.346  1.00  0.00     0.001 C   
ATOM     34  C22 UNL     1      -1.488   3.169   4.668  1.00  0.00     0.000 C   
ENDBRANCH  15  29
ENDBRANCH   3  15
TORSDOF 8
