REMARK SMILES Cc1ccc(C)c(C(=O)Cn2cc([C@@H]([NH2+]Cc3ccc4c(c3)OCO4)C3CCCC3)nn2)c1
REMARK SMILES IDX 11 1 12 2 13 3 31 4 32 5 10 7 8 8 9 9 7 10 2 11 3 12 33 13
REMARK SMILES IDX 4 14 5 15 1 16 6 17 14 18 15 19 16 22 17 23 18 24 22 25
REMARK SMILES IDX 19 26 21 27 20 28 23 29 25 30 24 31 26 32 27 33 30 34 28 35
REMARK SMILES IDX 29 36
REMARK H PARENT 12 6 15 20 15 21
ROOT
ATOM     1   N1  UNL     1       1.793   0.216  -1.192  1.00  0.00    -0.204 N   
ATOM     2   C10 UNL     1       1.504  -0.528  -0.083  1.00  0.00     0.046 A   
ATOM     3   C11 UNL     1       0.896  -1.653  -0.595  1.00  0.00     0.127 A   
ATOM     4   N3  UNL     1       0.912  -1.593  -1.964  1.00  0.00    -0.132 NA  
ATOM     5   N4  UNL     1       1.468  -0.446  -2.318  1.00  0.00    -0.076 NA  
ATOM     6   H11 UNL     1       1.659  -0.158   0.921  1.00  0.00     0.083 HD  
ENDROOT
BRANCH   1   7
ATOM     7   C9  UNL     1       2.259   1.587  -1.251  1.00  0.00     0.214 C   
BRANCH   7   8
ATOM     8   C8  UNL     1       1.105   2.544  -1.036  1.00  0.00     0.182 C   
ATOM     9   O1  UNL     1       0.123   2.250  -0.354  1.00  0.00    -0.292 OA  
BRANCH   8  10
ATOM     10  C7  UNL     1       1.203   3.893  -1.665  1.00  0.00     0.022 A   
ATOM     11  C2  UNL     1       2.588   5.813  -2.255  1.00  0.00    -0.050 A   
ATOM     12  C3  UNL     1       1.460   6.442  -2.786  1.00  0.00     0.004 A   
ATOM     13  C26 UNL     1       2.449   4.543  -1.679  1.00  0.00     0.015 A   
ATOM     14  C4  UNL     1       0.218   5.805  -2.768  1.00  0.00     0.004 A   
ATOM     15  C5  UNL     1       0.071   4.521  -2.221  1.00  0.00    -0.040 A   
ATOM     16  C1  UNL     1       3.914   6.516  -2.237  1.00  0.00     0.044 C   
ATOM     17  C6  UNL     1      -1.294   3.889  -2.228  1.00  0.00     0.045 C   
ENDBRANCH   8  10
ENDBRANCH   7   8
ENDBRANCH   1   7
BRANCH   3  18
ATOM     18  C12 UNL     1       0.155  -2.751   0.092  1.00  0.00     0.117 C   
BRANCH  18  19
ATOM     19  N2  UNL     1      -1.144  -3.032  -0.630  1.00  0.00     0.249 N   
ATOM     20  H13 UNL     1      -1.584  -3.883  -0.273  1.00  0.00     0.199 HD  
ATOM     21  H14 UNL     1      -0.903  -3.200  -1.616  1.00  0.00     0.199 HD  
BRANCH  19  22
ATOM     22  C13 UNL     1      -2.151  -1.922  -0.625  1.00  0.00     0.164 C   
BRANCH  22  23
ATOM     23  C14 UNL     1      -2.627  -1.561   0.754  1.00  0.00    -0.002 A   
ATOM     24  C15 UNL     1      -2.229  -0.338   1.347  1.00  0.00     0.012 A   
ATOM     25  C19 UNL     1      -3.438  -2.450   1.480  1.00  0.00     0.045 A   
ATOM     26  C16 UNL     1      -2.620  -0.010   2.650  1.00  0.00     0.037 A   
ATOM     27  C18 UNL     1      -3.806  -2.095   2.760  1.00  0.00     0.109 A   
ATOM     28  C17 UNL     1      -3.406  -0.912   3.331  1.00  0.00     0.108 A   
ATOM     29  O2  UNL     1      -4.575  -2.841   3.596  1.00  0.00    -0.316 OA  
ATOM     30  O3  UNL     1      -3.871  -0.767   4.599  1.00  0.00    -0.316 OA  
ATOM     31  C20 UNL     1      -4.646  -1.974   4.751  1.00  0.00     0.337 C   
ENDBRANCH  22  23
ENDBRANCH  19  22
ENDBRANCH  18  19
BRANCH  18  32
ATOM     32  C21 UNL     1       1.000  -4.037   0.221  1.00  0.00     0.043 C   
ATOM     33  C22 UNL     1       1.271  -4.819  -1.081  1.00  0.00     0.010 C   
ATOM     34  C25 UNL     1       0.399  -5.064   1.198  1.00  0.00     0.010 C   
ATOM     35  C23 UNL     1       0.762  -6.235  -0.835  1.00  0.00     0.001 C   
ATOM     36  C24 UNL     1       0.867  -6.410   0.670  1.00  0.00     0.001 C   
ENDBRANCH  18  32
ENDBRANCH   3  18
TORSDOF 8
