REMARK SMILES Cn1cc(Cn2cc([C@@H]([NH2+]Cc3ccc4c(c3)OCO4)C3CCCC3)nn2)c2cccnc21
REMARK SMILES IDX 6 1 7 2 8 3 26 4 27 5 5 7 4 8 2 9 3 10 33 11 28 12 32 13
REMARK SMILES IDX 29 14 31 15 30 16 1 17 9 18 10 19 11 22 12 23 13 24 17 25
REMARK SMILES IDX 14 26 16 27 15 28 18 29 20 30 19 31 21 32 22 33 25 34 23 35
REMARK SMILES IDX 24 36
REMARK H PARENT 7 6 10 20 10 21
ROOT
ATOM     1   N2  UNL     1      -1.200  -3.356   0.368  1.00  0.00    -0.208 N   
ATOM     2   C5  UNL     1      -0.456  -2.997  -0.725  1.00  0.00     0.046 A   
ATOM     3   C6  UNL     1       0.407  -2.042  -0.240  1.00  0.00     0.127 A   
ATOM     4   N4  UNL     1       0.187  -1.876   1.104  1.00  0.00    -0.132 NA  
ATOM     5   N5  UNL     1      -0.795  -2.685   1.464  1.00  0.00    -0.076 NA  
ATOM     6   H7  UNL     1      -0.635  -3.416  -1.706  1.00  0.00     0.083 HD  
ENDROOT
BRANCH   1   7
ATOM     7   C4  UNL     1      -2.320  -4.284   0.429  1.00  0.00     0.171 C   
BRANCH   7   8
ATOM     8   C3  UNL     1      -3.501  -3.712  -0.283  1.00  0.00    -0.004 A   
ATOM     9   N1  UNL     1      -5.103  -3.345  -1.800  1.00  0.00    -0.295 N   
ATOM     10  C2  UNL     1      -4.025  -4.137  -1.495  1.00  0.00     0.082 A   
ATOM     11  C25 UNL     1      -5.287  -2.408  -0.819  1.00  0.00     0.131 A   
ATOM     12  C21 UNL     1      -4.315  -2.617   0.155  1.00  0.00     0.021 A   
ATOM     13  N6  UNL     1      -6.250  -1.465  -0.817  1.00  0.00    -0.240 NA  
ATOM     14  C22 UNL     1      -4.336  -1.768   1.278  1.00  0.00     0.014 A   
ATOM     15  C24 UNL     1      -6.232  -0.686   0.286  1.00  0.00     0.113 A   
ATOM     16  C23 UNL     1      -5.326  -0.787   1.333  1.00  0.00     0.021 A   
ATOM     17  C1  UNL     1      -5.943  -3.472  -2.969  1.00  0.00     0.137 C   
ENDBRANCH   7   8
ENDBRANCH   1   7
BRANCH   3  18
ATOM     18  C7  UNL     1       1.420  -1.184  -0.927  1.00  0.00     0.117 C   
BRANCH  18  19
ATOM     19  N3  UNL     1       1.514   0.144  -0.226  1.00  0.00     0.249 N   
ATOM     20  H9  UNL     1       2.397   0.628  -0.415  1.00  0.00     0.199 HD  
ATOM     21  H10 UNL     1       1.512  -0.061   0.786  1.00  0.00     0.199 HD  
BRANCH  19  22
ATOM     22  C8  UNL     1       0.379   1.076  -0.479  1.00  0.00     0.164 C   
BRANCH  22  23
ATOM     23  C9  UNL     1       0.476   2.273   0.423  1.00  0.00    -0.002 A   
ATOM     24  C10 UNL     1      -0.055   2.214   1.734  1.00  0.00     0.012 A   
ATOM     25  C14 UNL     1       1.142   3.434  -0.004  1.00  0.00     0.045 A   
ATOM     26  C11 UNL     1       0.064   3.300   2.607  1.00  0.00     0.037 A   
ATOM     27  C13 UNL     1       1.241   4.487   0.882  1.00  0.00     0.109 A   
ATOM     28  C12 UNL     1       0.718   4.423   2.150  1.00  0.00     0.108 A   
ATOM     29  O1  UNL     1       1.850   5.675   0.631  1.00  0.00    -0.316 OA  
ATOM     30  O2  UNL     1       0.929   5.563   2.856  1.00  0.00    -0.316 OA  
ATOM     31  C15 UNL     1       1.630   6.366   1.882  1.00  0.00     0.337 C   
ENDBRANCH  22  23
ENDBRANCH  19  22
ENDBRANCH  18  19
BRANCH  18  32
ATOM     32  C16 UNL     1       2.800  -1.867  -0.987  1.00  0.00     0.043 C   
ATOM     33  C17 UNL     1       3.818  -1.166  -1.901  1.00  0.00     0.010 C   
ATOM     34  C20 UNL     1       3.543  -2.014   0.345  1.00  0.00     0.010 C   
ATOM     35  C18 UNL     1       5.196  -1.453  -1.298  1.00  0.00     0.001 C   
ATOM     36  C19 UNL     1       4.955  -2.361  -0.100  1.00  0.00     0.001 C   
ENDBRANCH  18  32
ENDBRANCH   3  18
TORSDOF 7
