REMARK SMILES Oc1cc(Cl)ccc1Cn1cc([C@@H]([NH2+]Cc2ccc3c(c2)OCO3)C2CCCCC2)nn1
REMARK SMILES IDX 10 1 11 2 12 3 31 4 32 5 9 7 8 8 2 9 3 10 4 11 7 12 6 13
REMARK SMILES IDX 5 14 1 15 13 17 14 18 15 21 16 22 17 23 21 24 18 25 20 26
REMARK SMILES IDX 19 27 22 28 24 29 23 30 25 31 26 32 30 33 27 34 29 35 28 36
REMARK H PARENT 11 6 1 16 14 19 14 20
ROOT
ATOM     1   N1  UNL     1      -0.316  -1.021  -2.449  1.00  0.00    -0.208 N   
ATOM     2   C8  UNL     1      -0.847  -0.958  -1.187  1.00  0.00     0.046 A   
ATOM     3   C9  UNL     1      -0.402   0.250  -0.697  1.00  0.00     0.127 A   
ATOM     4   N3  UNL     1       0.353   0.875  -1.656  1.00  0.00    -0.132 NA  
ATOM     5   N4  UNL     1       0.382   0.100  -2.727  1.00  0.00    -0.076 NA  
ATOM     6   H7  UNL     1      -1.448  -1.754  -0.771  1.00  0.00     0.083 HD  
ENDROOT
BRANCH   1   7
ATOM     7   C7  UNL     1      -0.485  -2.058  -3.456  1.00  0.00     0.172 C   
BRANCH   7   8
ATOM     8   C6  UNL     1      -0.168  -3.434  -2.920  1.00  0.00     0.002 A   
ATOM     9   C1  UNL     1       1.152  -3.825  -2.661  1.00  0.00     0.078 A   
ATOM     10  C2  UNL     1       1.451  -5.095  -2.174  1.00  0.00     0.054 A   
ATOM     11  C3  UNL     1       0.415  -5.994  -1.937  1.00  0.00     0.043 A   
ATOM     12  C5  UNL     1      -1.198  -4.358  -2.680  1.00  0.00     0.010 A   
ATOM     13  C4  UNL     1      -0.906  -5.633  -2.189  1.00  0.00     0.021 A   
ATOM     14  CL1 UNL     1       0.769  -7.562  -1.325  1.00  0.00    -0.084 Cl  
BRANCH   9  15
ATOM     15  O1  UNL     1       2.153  -2.927  -2.894  1.00  0.00    -0.361 OA  
ATOM     16  H1  UNL     1       3.008  -3.394  -2.891  1.00  0.00     0.218 HD  
ENDBRANCH   9  15
ENDBRANCH   7   8
ENDBRANCH   1   7
BRANCH   3  17
ATOM     17  C10 UNL     1      -0.548   0.884   0.646  1.00  0.00     0.117 C   
BRANCH  17  18
ATOM     18  N2  UNL     1       0.725   1.608   1.011  1.00  0.00     0.249 N   
ATOM     19  H9  UNL     1       0.995   2.174   0.193  1.00  0.00     0.199 HD  
ATOM     20  H10 UNL     1       0.574   2.264   1.785  1.00  0.00     0.199 HD  
BRANCH  18  21
ATOM     21  C11 UNL     1       1.882   0.726   1.331  1.00  0.00     0.164 C   
BRANCH  21  22
ATOM     22  C12 UNL     1       3.076   1.543   1.735  1.00  0.00    -0.002 A   
ATOM     23  C13 UNL     1       3.967   2.038   0.754  1.00  0.00     0.012 A   
ATOM     24  C17 UNL     1       3.290   1.858   3.088  1.00  0.00     0.045 A   
ATOM     25  C14 UNL     1       5.070   2.821   1.113  1.00  0.00     0.037 A   
ATOM     26  C16 UNL     1       4.387   2.631   3.409  1.00  0.00     0.109 A   
ATOM     27  C15 UNL     1       5.254   3.097   2.452  1.00  0.00     0.108 A   
ATOM     28  O2  UNL     1       4.741   3.013   4.664  1.00  0.00    -0.316 OA  
ATOM     29  O3  UNL     1       6.265   3.832   2.983  1.00  0.00    -0.316 OA  
ATOM     30  C18 UNL     1       5.951   3.757   4.390  1.00  0.00     0.337 C   
ENDBRANCH  21  22
ENDBRANCH  18  21
ENDBRANCH  17  18
BRANCH  17  31
ATOM     31  C19 UNL     1      -1.732   1.879   0.763  1.00  0.00     0.043 C   
ATOM     32  C20 UNL     1      -3.089   1.161   0.624  1.00  0.00     0.010 C   
ATOM     33  C24 UNL     1      -1.660   3.072  -0.211  1.00  0.00     0.010 C   
ATOM     34  C21 UNL     1      -4.259   2.123   0.820  1.00  0.00     0.001 C   
ATOM     35  C23 UNL     1      -2.837   4.029  -0.019  1.00  0.00     0.001 C   
ATOM     36  C22 UNL     1      -4.176   3.309  -0.136  1.00  0.00     0.000 C   
ENDBRANCH  17  31
ENDBRANCH   3  17
TORSDOF 8
