REMARK SMILES CC(C)C[C@H]([NH2+]Cc1ccc2c(c1)OCO2)c1cn(Cc2cccc(C(C)(F)F)n2)nn1
REMARK SMILES IDX 17 1 18 2 19 3 31 4 32 5 5 7 4 8 2 9 1 10 3 11 6 12 7 15
REMARK SMILES IDX 8 16 9 17 13 18 10 19 12 20 11 21 14 22 16 23 15 24 20 25
REMARK SMILES IDX 21 26 22 27 30 28 23 29 25 30 24 31 26 32 27 33 28 34 29 35
REMARK H PARENT 18 6 6 13 6 14
ROOT
ATOM     1   C14 UNL     1      -0.673  -1.895  -0.341  1.00  0.00     0.127 A   
ATOM     2   C15 UNL     1      -0.390  -2.340   0.930  1.00  0.00     0.046 A   
ATOM     3   N2  UNL     1       0.765  -3.058   0.771  1.00  0.00    -0.206 N   
ATOM     4   N4  UNL     1       1.093  -3.161  -0.533  1.00  0.00    -0.076 NA  
ATOM     5   N5  UNL     1       0.226  -2.437  -1.223  1.00  0.00    -0.132 NA  
ATOM     6   H20 UNL     1      -0.800  -2.121   1.907  1.00  0.00     0.083 HD  
ENDROOT
BRANCH   1   7
ATOM     7   C5  UNL     1      -1.628  -0.848  -0.809  1.00  0.00     0.114 C   
BRANCH   7   8
ATOM     8   C4  UNL     1      -2.713  -1.446  -1.724  1.00  0.00     0.064 C   
BRANCH   8   9
ATOM     9   C2  UNL     1      -3.767  -0.462  -2.275  1.00  0.00    -0.012 C   
ATOM     10  C1  UNL     1      -4.791  -1.225  -3.122  1.00  0.00     0.007 C   
ATOM     11  C3  UNL     1      -4.485   0.314  -1.171  1.00  0.00     0.007 C   
ENDBRANCH   8   9
ENDBRANCH   7   8
BRANCH   7  12
ATOM     12  N1  UNL     1      -0.874   0.221  -1.553  1.00  0.00     0.249 N   
ATOM     13  H11 UNL     1      -0.344  -0.244  -2.304  1.00  0.00     0.199 HD  
ATOM     14  H12 UNL     1      -1.508   0.884  -2.005  1.00  0.00     0.199 HD  
BRANCH  12  15
ATOM     15  C6  UNL     1       0.106   0.994  -0.730  1.00  0.00     0.164 C   
BRANCH  15  16
ATOM     16  C7  UNL     1       0.703   2.106  -1.545  1.00  0.00    -0.002 A   
ATOM     17  C8  UNL     1       0.120   3.395  -1.528  1.00  0.00     0.012 A   
ATOM     18  C12 UNL     1       1.813   1.858  -2.370  1.00  0.00     0.045 A   
ATOM     19  C9  UNL     1       0.641   4.428  -2.314  1.00  0.00     0.037 A   
ATOM     20  C11 UNL     1       2.303   2.898  -3.131  1.00  0.00     0.109 A   
ATOM     21  C10 UNL     1       1.733   4.147  -3.103  1.00  0.00     0.108 A   
ATOM     22  O1  UNL     1       3.364   2.830  -3.976  1.00  0.00    -0.316 OA  
ATOM     23  O2  UNL     1       2.368   5.025  -3.924  1.00  0.00    -0.316 OA  
ATOM     24  C13 UNL     1       3.426   4.195  -4.447  1.00  0.00     0.337 C   
ENDBRANCH  15  16
ENDBRANCH  12  15
ENDBRANCH   7  12
ENDBRANCH   1   7
BRANCH   3  25
ATOM     25  C16 UNL     1       1.670  -3.525   1.806  1.00  0.00     0.190 C   
BRANCH  25  26
ATOM     26  C17 UNL     1       2.632  -2.424   2.191  1.00  0.00     0.060 A   
ATOM     27  C18 UNL     1       3.979  -2.707   2.392  1.00  0.00     0.025 A   
ATOM     28  N3  UNL     1       2.127  -1.172   2.364  1.00  0.00    -0.250 NA  
ATOM     29  C19 UNL     1       4.837  -1.671   2.747  1.00  0.00     0.004 A   
ATOM     30  C21 UNL     1       2.980  -0.158   2.686  1.00  0.00     0.109 A   
ATOM     31  C20 UNL     1       4.339  -0.380   2.889  1.00  0.00     0.030 A   
BRANCH  30  32
ATOM     32  C22 UNL     1       2.403   1.242   2.830  1.00  0.00     0.286 C   
ATOM     33  C23 UNL     1       1.907   1.486   4.245  1.00  0.00     0.094 C   
ATOM     34  F1  UNL     1       3.303   2.220   2.522  1.00  0.00    -0.200 F   
ATOM     35  F2  UNL     1       1.350   1.454   1.974  1.00  0.00    -0.200 F   
ENDBRANCH  30  32
ENDBRANCH  25  26
ENDBRANCH   3  25
TORSDOF 9
