REMARK SMILES CCc1ccc([C@@H](O)Cn2cc([C@@H]([NH2+]Cc3ccc4c(c3)OCO4)C3CCCCC3)nn2)cc1
REMARK SMILES IDX 10 1 11 2 12 3 31 4 32 5 9 7 7 8 6 9 3 10 4 11 34 12 5 13
REMARK SMILES IDX 33 14 2 15 1 16 8 17 13 19 14 20 15 23 16 24 17 25 21 26
REMARK SMILES IDX 18 27 20 28 19 29 22 30 24 31 23 32 25 33 26 34 30 35 27 36
REMARK SMILES IDX 29 37 28 38
REMARK H PARENT 11 6 8 18 14 21 14 22
ROOT
ATOM     1   N1  UNL     1      -0.287   1.452  -3.644  1.00  0.00    -0.209 N   
ATOM     2   C9  UNL     1      -1.132   0.806  -2.788  1.00  0.00     0.045 A   
ATOM     3   C10 UNL     1      -1.100   1.578  -1.647  1.00  0.00     0.127 A   
ATOM     4   N3  UNL     1      -0.276   2.655  -1.854  1.00  0.00    -0.132 NA  
ATOM     5   N4  UNL     1       0.214   2.566  -3.080  1.00  0.00    -0.076 NA  
ATOM     6   H12 UNL     1      -1.617  -0.126  -3.043  1.00  0.00     0.083 HD  
ENDROOT
BRANCH   1   7
ATOM     7   C8  UNL     1       0.164   1.013  -4.944  1.00  0.00     0.170 C   
BRANCH   7   8
ATOM     8   C7  UNL     1       1.657   0.663  -4.975  1.00  0.00     0.164 C   
BRANCH   8   9
ATOM     9   C6  UNL     1       2.068  -0.354  -3.926  1.00  0.00    -0.018 A   
ATOM     10  C3  UNL     1       2.846  -2.227  -1.961  1.00  0.00    -0.048 A   
ATOM     11  C4  UNL     1       2.006  -2.610  -3.013  1.00  0.00     0.004 A   
ATOM     12  C27 UNL     1       3.284  -0.899  -1.890  1.00  0.00     0.004 A   
ATOM     13  C5  UNL     1       1.626  -1.684  -3.989  1.00  0.00     0.007 A   
ATOM     14  C26 UNL     1       2.898   0.028  -2.862  1.00  0.00     0.007 A   
BRANCH  10  15
ATOM     15  C2  UNL     1       3.281  -3.233  -0.923  1.00  0.00     0.032 C   
ATOM     16  C1  UNL     1       2.345  -3.253   0.275  1.00  0.00     0.009 C   
ENDBRANCH  10  15
ENDBRANCH   8   9
BRANCH   8  17
ATOM     17  O1  UNL     1       1.977   0.148  -6.269  1.00  0.00    -0.387 OA  
ATOM     18  H9  UNL     1       2.859  -0.263  -6.210  1.00  0.00     0.211 HD  
ENDBRANCH   8  17
ENDBRANCH   7   8
ENDBRANCH   1   7
BRANCH   3  19
ATOM     19  C11 UNL     1      -1.681   1.352  -0.285  1.00  0.00     0.117 C   
BRANCH  19  20
ATOM     20  N2  UNL     1      -0.582   1.587   0.725  1.00  0.00     0.249 N   
ATOM     21  H14 UNL     1      -0.932   1.645   1.682  1.00  0.00     0.199 HD  
ATOM     22  H15 UNL     1      -0.185   2.514   0.507  1.00  0.00     0.199 HD  
BRANCH  20  23
ATOM     23  C12 UNL     1       0.543   0.601   0.701  1.00  0.00     0.164 C   
BRANCH  23  24
ATOM     24  C13 UNL     1       1.691   1.115   1.520  1.00  0.00    -0.002 A   
ATOM     25  C14 UNL     1       2.660   1.960   0.926  1.00  0.00     0.012 A   
ATOM     26  C18 UNL     1       1.771   0.828   2.894  1.00  0.00     0.045 A   
ATOM     27  C15 UNL     1       3.699   2.508   1.686  1.00  0.00     0.037 A   
ATOM     28  C17 UNL     1       2.806   1.389   3.617  1.00  0.00     0.109 A   
ATOM     29  C16 UNL     1       3.738   2.211   3.031  1.00  0.00     0.108 A   
ATOM     30  O2  UNL     1       3.019   1.227   4.951  1.00  0.00    -0.316 OA  
ATOM     31  O3  UNL     1       4.653   2.670   3.923  1.00  0.00    -0.316 OA  
ATOM     32  C19 UNL     1       4.194   2.047   5.143  1.00  0.00     0.337 C   
ENDBRANCH  23  24
ENDBRANCH  20  23
ENDBRANCH  19  20
BRANCH  19  33
ATOM     33  C20 UNL     1      -2.871   2.312   0.017  1.00  0.00     0.043 C   
ATOM     34  C21 UNL     1      -3.482   2.133   1.427  1.00  0.00     0.010 C   
ATOM     35  C25 UNL     1      -4.020   2.173  -1.008  1.00  0.00     0.010 C   
ATOM     36  C22 UNL     1      -4.215   0.801   1.588  1.00  0.00     0.001 C   
ATOM     37  C24 UNL     1      -4.760   0.840  -0.888  1.00  0.00     0.001 C   
ATOM     38  C23 UNL     1      -5.294   0.619   0.525  1.00  0.00     0.000 C   
ENDBRANCH  19  33
ENDBRANCH   3  19
TORSDOF 10
