REMARK SMILES CC(C)[C@H]([NH2+]Cc1ccc2c(c1)OCO2)c1cn(C(=O)c2ccc(Cl)cc2)nn1
REMARK SMILES IDX 16 1 17 2 18 3 28 4 29 5 4 6 2 7 1 8 3 9 5 10 6 13 7 14 8 15
REMARK SMILES IDX 12 16 9 17 11 18 10 19 13 20 15 21 14 22 19 23 20 24 21 25
REMARK SMILES IDX 22 26 27 27 23 28 26 29 24 30 25 31
REMARK H PARENT 5 11 5 12
ROOT
ATOM     1   C13 UNL     1       0.705   1.077   0.650  1.00  0.00     0.128 A   
ATOM     2   C14 UNL     1       2.025   1.199   1.016  1.00  0.00     0.139 A   
ATOM     3   N2  UNL     1       2.200   0.296   2.051  1.00  0.00    -0.143 N   
ATOM     4   N3  UNL     1       1.028  -0.347   2.274  1.00  0.00    -0.068 NA  
ATOM     5   N4  UNL     1       0.119   0.116   1.429  1.00  0.00    -0.131 NA  
ENDROOT
BRANCH   1   6
ATOM     6   C4  UNL     1      -0.094   1.786  -0.401  1.00  0.00     0.117 C   
BRANCH   6   7
ATOM     7   C2  UNL     1      -0.539   3.199   0.062  1.00  0.00     0.037 C   
ATOM     8   C1  UNL     1      -1.049   4.046  -1.111  1.00  0.00     0.014 C   
ATOM     9   C3  UNL     1      -1.584   3.185   1.184  1.00  0.00     0.014 C   
ENDBRANCH   6   7
BRANCH   6  10
ATOM     10  N1  UNL     1      -1.292   0.970  -0.803  1.00  0.00     0.249 N   
ATOM     11  H9  UNL     1      -2.012   1.542  -1.255  1.00  0.00     0.199 HD  
ATOM     12  H10 UNL     1      -1.718   0.607   0.063  1.00  0.00     0.199 HD  
BRANCH  10  13
ATOM     13  C5  UNL     1      -1.002  -0.201  -1.678  1.00  0.00     0.164 C   
BRANCH  13  14
ATOM     14  C6  UNL     1      -2.261  -0.972  -1.955  1.00  0.00    -0.002 A   
ATOM     15  C7  UNL     1      -3.018  -0.717  -3.123  1.00  0.00     0.012 A   
ATOM     16  C11 UNL     1      -2.723  -1.918  -1.023  1.00  0.00     0.045 A   
ATOM     17  C8  UNL     1      -4.214  -1.400  -3.366  1.00  0.00     0.037 A   
ATOM     18  C10 UNL     1      -3.907  -2.573  -1.294  1.00  0.00     0.109 A   
ATOM     19  C9  UNL     1      -4.632  -2.321  -2.432  1.00  0.00     0.108 A   
ATOM     20  O1  UNL     1      -4.490  -3.512  -0.503  1.00  0.00    -0.316 OA  
ATOM     21  O2  UNL     1      -5.763  -3.069  -2.502  1.00  0.00    -0.316 OA  
ATOM     22  C12 UNL     1      -5.662  -3.839  -1.284  1.00  0.00     0.337 C   
ENDBRANCH  13  14
ENDBRANCH  10  13
ENDBRANCH   6  10
ENDBRANCH   1   6
BRANCH   3  23
ATOM     23  C15 UNL     1       3.360   0.058   2.807  1.00  0.00     0.271 C   
ATOM     24  O3  UNL     1       4.330   0.763   2.526  1.00  0.00    -0.269 OA  
BRANCH  23  25
ATOM     25  C16 UNL     1       3.504  -0.940   3.903  1.00  0.00     0.040 A   
ATOM     26  C17 UNL     1       4.426  -0.661   4.925  1.00  0.00     0.015 A   
ATOM     27  C21 UNL     1       2.793  -2.146   3.933  1.00  0.00     0.015 A   
ATOM     28  C18 UNL     1       4.613  -1.563   5.976  1.00  0.00     0.021 A   
ATOM     29  C20 UNL     1       2.984  -3.048   4.987  1.00  0.00     0.021 A   
ATOM     30  C19 UNL     1       3.889  -2.752   6.005  1.00  0.00     0.041 A   
ATOM     31  CL1 UNL     1       4.118  -3.864   7.295  1.00  0.00    -0.084 Cl  
ENDBRANCH  23  25
ENDBRANCH   3  23
TORSDOF 7
