REMARK SMILES c1cc2c(o1)[C@@H](Cn1cc([C@@H]([NH2+]Cc3ccc4c(c3)OCO4)C3CCCCC3)nn1)NCC2
REMARK SMILES IDX 8 1 9 2 10 3 29 4 30 5 7 7 6 8 1 9 2 10 5 11 3 12 4 13 33 14
REMARK SMILES IDX 32 15 31 16 11 18 12 19 13 22 14 23 15 24 19 25 16 26 18 27
REMARK SMILES IDX 17 28 20 29 22 30 21 31 23 32 24 33 28 34 25 35 27 36 26 37
REMARK H PARENT 9 6 31 17 12 20 12 21
ROOT
ATOM     1   N1  UNL     1      -1.354  -0.647  -2.065  1.00  0.00    -0.210 N   
ATOM     2   C7  UNL     1      -0.656   0.409  -1.549  1.00  0.00     0.045 A   
ATOM     3   C8  UNL     1      -1.054   0.460  -0.232  1.00  0.00     0.127 A   
ATOM     4   N3  UNL     1      -2.004  -0.507  -0.014  1.00  0.00    -0.132 NA  
ATOM     5   N4  UNL     1      -2.196  -1.160  -1.148  1.00  0.00    -0.076 NA  
ATOM     6   H6  UNL     1       0.045   0.984  -2.138  1.00  0.00     0.083 HD  
ENDROOT
BRANCH   1   7
ATOM     7   C6  UNL     1      -1.335  -1.161  -3.420  1.00  0.00     0.160 C   
BRANCH   7   8
ATOM     8   C5  UNL     1      -0.797  -2.595  -3.515  1.00  0.00     0.128 C   
ATOM     9   C1  UNL     1       2.643  -2.297  -2.459  1.00  0.00     0.136 A   
ATOM     10  C2  UNL     1       2.838  -3.248  -3.439  1.00  0.00     0.032 A   
ATOM     11  O1  UNL     1       1.329  -1.943  -2.379  1.00  0.00    -0.321 OA  
ATOM     12  C3  UNL     1       1.564  -3.497  -3.994  1.00  0.00    -0.016 A   
ATOM     13  C4  UNL     1       0.686  -2.678  -3.319  1.00  0.00     0.080 A   
ATOM     14  C25 UNL     1       1.091  -4.397  -5.081  1.00  0.00     0.053 C   
ATOM     15  C24 UNL     1      -0.461  -4.483  -5.061  1.00  0.00     0.086 C   
ATOM     16  N5  UNL     1      -1.127  -3.168  -4.862  1.00  0.00    -0.307 NA  
ATOM     17  H28 UNL     1      -0.778  -2.533  -5.582  1.00  0.00     0.123 HD  
ENDBRANCH   7   8
ENDBRANCH   1   7
BRANCH   3  18
ATOM     18  C9  UNL     1      -0.693   1.393   0.882  1.00  0.00     0.117 C   
BRANCH  18  19
ATOM     19  N2  UNL     1      -1.850   1.404   1.859  1.00  0.00     0.249 N   
ATOM     20  H8  UNL     1      -2.703   1.414   1.281  1.00  0.00     0.199 HD  
ATOM     21  H9  UNL     1      -1.896   0.485   2.315  1.00  0.00     0.199 HD  
BRANCH  19  22
ATOM     22  C10 UNL     1      -1.946   2.501   2.851  1.00  0.00     0.164 C   
BRANCH  22  23
ATOM     23  C11 UNL     1      -2.154   3.847   2.215  1.00  0.00    -0.002 A   
ATOM     24  C12 UNL     1      -1.100   4.791   2.167  1.00  0.00     0.012 A   
ATOM     25  C16 UNL     1      -3.393   4.163   1.628  1.00  0.00     0.045 A   
ATOM     26  C13 UNL     1      -1.274   6.032   1.544  1.00  0.00     0.037 A   
ATOM     27  C15 UNL     1      -3.530   5.393   1.018  1.00  0.00     0.109 A   
ATOM     28  C14 UNL     1      -2.502   6.302   0.978  1.00  0.00     0.108 A   
ATOM     29  O2  UNL     1      -4.651   5.848   0.399  1.00  0.00    -0.316 OA  
ATOM     30  O3  UNL     1      -2.849   7.448   0.337  1.00  0.00    -0.316 OA  
ATOM     31  C17 UNL     1      -4.211   7.154  -0.039  1.00  0.00     0.337 C   
ENDBRANCH  22  23
ENDBRANCH  19  22
ENDBRANCH  18  19
BRANCH  18  32
ATOM     32  C18 UNL     1       0.632   1.045   1.613  1.00  0.00     0.043 C   
ATOM     33  C19 UNL     1       0.670  -0.373   2.220  1.00  0.00     0.010 C   
ATOM     34  C23 UNL     1       1.857   1.260   0.700  1.00  0.00     0.010 C   
ATOM     35  C20 UNL     1       1.989  -0.645   2.947  1.00  0.00     0.001 C   
ATOM     36  C22 UNL     1       3.166   1.002   1.443  1.00  0.00     0.001 C   
ATOM     37  C21 UNL     1       3.196  -0.396   2.049  1.00  0.00     0.000 C   
ENDBRANCH  18  32
ENDBRANCH   3  18
TORSDOF 7
