REMARK SMILES COc1ccc(Cn2cc([C@@H]([NH2+]Cc3ccc4c(c3)OCO4)C3CCCCC3)nn2)cn1
REMARK SMILES IDX 8 1 9 2 10 3 29 4 30 5 7 7 6 8 3 9 4 10 32 11 5 12 31 13
REMARK SMILES IDX 2 14 1 15 11 16 12 17 13 20 14 21 15 22 19 23 16 24 18 25
REMARK SMILES IDX 17 26 20 27 22 28 21 29 23 30 24 31 28 32 25 33 27 34 26 35
REMARK H PARENT 9 6 12 18 12 19
ROOT
ATOM     1   N1  UNL     1       2.499   2.033   1.939  1.00  0.00    -0.208 N   
ATOM     2   C7  UNL     1       1.293   1.387   1.946  1.00  0.00     0.046 A   
ATOM     3   C8  UNL     1       1.510   0.271   1.168  1.00  0.00     0.127 A   
ATOM     4   N3  UNL     1       2.813   0.268   0.741  1.00  0.00    -0.132 NA  
ATOM     5   N4  UNL     1       3.405   1.351   1.213  1.00  0.00    -0.076 NA  
ATOM     6   H8  UNL     1       0.428   1.780   2.462  1.00  0.00     0.083 HD  
ENDROOT
BRANCH   1   7
ATOM     7   C6  UNL     1       2.840   3.311   2.543  1.00  0.00     0.171 C   
BRANCH   7   8
ATOM     8   C5  UNL     1       2.229   4.444   1.769  1.00  0.00    -0.010 A   
ATOM     9   C2  UNL     1       1.152   6.462   0.257  1.00  0.00     0.166 A   
ATOM     10  C3  UNL     1       0.662   6.260   1.536  1.00  0.00     0.055 A   
ATOM     11  N5  UNL     1       2.129   5.713  -0.294  1.00  0.00    -0.232 NA  
ATOM     12  C4  UNL     1       1.210   5.236   2.304  1.00  0.00     0.011 A   
ATOM     13  C24 UNL     1       2.654   4.735   0.475  1.00  0.00     0.119 A   
BRANCH   9  14
ATOM     14  O1  UNL     1       0.566   7.478  -0.467  1.00  0.00    -0.333 OA  
ATOM     15  C1  UNL     1       1.211   7.724  -1.713  1.00  0.00     0.205 C   
ENDBRANCH   9  14
ENDBRANCH   7   8
ENDBRANCH   1   7
BRANCH   3  16
ATOM     16  C9  UNL     1       0.589  -0.823   0.726  1.00  0.00     0.117 C   
BRANCH  16  17
ATOM     17  N2  UNL     1       1.149  -1.499  -0.503  1.00  0.00     0.249 N   
ATOM     18  H10 UNL     1       0.852  -2.476  -0.566  1.00  0.00     0.199 HD  
ATOM     19  H11 UNL     1       2.173  -1.509  -0.378  1.00  0.00     0.199 HD  
BRANCH  17  20
ATOM     20  C10 UNL     1       0.866  -0.816  -1.799  1.00  0.00     0.164 C   
BRANCH  20  21
ATOM     21  C11 UNL     1      -0.564  -0.989  -2.231  1.00  0.00    -0.002 A   
ATOM     22  C12 UNL     1      -1.448   0.115  -2.238  1.00  0.00     0.012 A   
ATOM     23  C16 UNL     1      -1.046  -2.258  -2.596  1.00  0.00     0.045 A   
ATOM     24  C13 UNL     1      -2.794  -0.041  -2.584  1.00  0.00     0.037 A   
ATOM     25  C15 UNL     1      -2.377  -2.378  -2.931  1.00  0.00     0.109 A   
ATOM     26  C14 UNL     1      -3.228  -1.304  -2.924  1.00  0.00     0.108 A   
ATOM     27  O2  UNL     1      -2.998  -3.533  -3.287  1.00  0.00    -0.316 OA  
ATOM     28  O3  UNL     1      -4.494  -1.644  -3.275  1.00  0.00    -0.316 OA  
ATOM     29  C17 UNL     1      -4.340  -3.054  -3.537  1.00  0.00     0.337 C   
ENDBRANCH  20  21
ENDBRANCH  17  20
ENDBRANCH  16  17
BRANCH  16  30
ATOM     30  C18 UNL     1       0.321  -1.861   1.846  1.00  0.00     0.043 C   
ATOM     31  C19 UNL     1       1.549  -2.712   2.219  1.00  0.00     0.010 C   
ATOM     32  C23 UNL     1      -0.877  -2.768   1.499  1.00  0.00     0.010 C   
ATOM     33  C20 UNL     1       1.229  -3.691   3.347  1.00  0.00     0.001 C   
ATOM     34  C22 UNL     1      -1.185  -3.751   2.627  1.00  0.00     0.001 C   
ATOM     35  C21 UNL     1       0.038  -4.579   3.002  1.00  0.00     0.000 C   
ENDBRANCH  16  30
ENDBRANCH   3  16
TORSDOF 8
