REMARK SMILES c1cc2c(cc1C[NH2+][C@H](c1cn(Cc3cn[nH]c3)nn1)C1CCCC1)OCO2
REMARK SMILES IDX 10 1 11 2 12 3 19 4 20 5 9 7 8 8 7 11 6 12 1 13 2 14 3 15
REMARK SMILES IDX 5 16 4 17 28 18 26 19 27 20 21 21 22 22 25 23 23 24 24 25
REMARK SMILES IDX 13 26 14 27 15 28 18 29 16 30 17 31
REMARK H PARENT 11 6 8 9 8 10 17 32
ROOT
ATOM     1   C9  UNL     1       0.085   1.808  -0.188  1.00  0.00     0.127 A   
ATOM     2   C10 UNL     1       0.299   3.070  -0.697  1.00  0.00     0.046 A   
ATOM     3   N2  UNL     1      -0.050   3.906   0.332  1.00  0.00    -0.208 N   
ATOM     4   N5  UNL     1      -0.458   3.200   1.405  1.00  0.00    -0.076 NA  
ATOM     5   N6  UNL     1      -0.391   1.916   1.095  1.00  0.00    -0.132 NA  
ATOM     6   H9  UNL     1       0.666   3.442  -1.644  1.00  0.00     0.083 HD  
ENDROOT
BRANCH   1   7
ATOM     7   C8  UNL     1       0.301   0.452  -0.781  1.00  0.00     0.117 C   
BRANCH   7   8
ATOM     8   N1  UNL     1       0.383  -0.584   0.309  1.00  0.00     0.249 N   
ATOM     9   H6  UNL     1      -0.341  -0.342   1.002  1.00  0.00     0.199 HD  
ATOM     10  H7  UNL     1       0.156  -1.524  -0.030  1.00  0.00     0.199 HD  
BRANCH   8  11
ATOM     11  C7  UNL     1       1.679  -0.631   1.041  1.00  0.00     0.164 C   
BRANCH  11  12
ATOM     12  C6  UNL     1       1.577  -1.556   2.221  1.00  0.00    -0.002 A   
ATOM     13  C1  UNL     1       1.095  -1.067   3.460  1.00  0.00     0.012 A   
ATOM     14  C2  UNL     1       0.949  -1.918   4.560  1.00  0.00     0.037 A   
ATOM     15  C3  UNL     1       1.283  -3.243   4.397  1.00  0.00     0.108 A   
ATOM     16  C5  UNL     1       1.901  -2.917   2.092  1.00  0.00     0.045 A   
ATOM     17  C4  UNL     1       1.745  -3.728   3.198  1.00  0.00     0.109 A   
ATOM     18  O2  UNL     1       1.202  -4.207   5.349  1.00  0.00    -0.316 OA  
ATOM     19  O1  UNL     1       2.011  -5.060   3.245  1.00  0.00    -0.316 OA  
ATOM     20  C20 UNL     1       1.695  -5.354   4.625  1.00  0.00     0.337 C   
ENDBRANCH  11  12
ENDBRANCH   8  11
ENDBRANCH   7   8
BRANCH   7  21
ATOM     21  C15 UNL     1      -0.811   0.082  -1.784  1.00  0.00     0.043 C   
ATOM     22  C16 UNL     1      -0.554  -1.220  -2.570  1.00  0.00     0.010 C   
ATOM     23  C19 UNL     1      -2.217  -0.078  -1.189  1.00  0.00     0.010 C   
ATOM     24  C17 UNL     1      -1.861  -2.008  -2.528  1.00  0.00     0.001 C   
ATOM     25  C18 UNL     1      -2.927  -0.980  -2.186  1.00  0.00     0.001 C   
ENDBRANCH   7  21
ENDBRANCH   1   7
BRANCH   3  26
ATOM     26  C11 UNL     1      -0.016   5.360   0.367  1.00  0.00     0.172 C   
BRANCH  26  27
ATOM     27  C12 UNL     1       1.378   5.864   0.244  1.00  0.00     0.007 A   
ATOM     28  C13 UNL     1       2.487   5.545   1.062  1.00  0.00     0.137 A   
ATOM     29  C14 UNL     1       1.888   6.763  -0.671  1.00  0.00     0.099 A   
ATOM     30  N3  UNL     1       3.606   6.145   0.659  1.00  0.00    -0.193 NA  
ATOM     31  N4  UNL     1       3.212   6.912  -0.370  1.00  0.00    -0.246 N   
ATOM     32  H13 UNL     1       3.903   7.507  -0.819  1.00  0.00     0.175 HD  
ENDBRANCH  26  27
ENDBRANCH   3  26
TORSDOF 7
