REMARK SMILES c1nc(-n2cc([C@@H]([NH2+]Cc3ccc4c(c3)OCO4)C3CCCC3)nn2)n[nH]1
REMARK SMILES IDX 7 1 6 2 4 3 5 4 25 5 24 6 3 7 1 8 2 9 27 10 26 11 8 13 9 16
REMARK SMILES IDX 10 17 11 18 15 19 12 20 14 21 13 22 16 23 18 24 17 25 19 26
REMARK SMILES IDX 20 27 23 28 21 29 22 30
REMARK H PARENT 27 12 8 14 8 15
ROOT
ATOM     1   C5  UNL     1       0.484  -0.825  -0.081  1.00  0.00     0.117 C   
ENDROOT
BRANCH   1   2
ATOM     2   C4  UNL     1       1.359  -0.352  -1.196  1.00  0.00     0.128 A   
ATOM     3   N2  UNL     1       2.554   0.731  -2.688  1.00  0.00    -0.144 N   
ATOM     4   C3  UNL     1       1.784   0.907  -1.546  1.00  0.00     0.138 A   
ATOM     5   N5  UNL     1       2.543  -0.594  -3.009  1.00  0.00    -0.068 NA  
ATOM     6   N4  UNL     1       1.835  -1.253  -2.106  1.00  0.00    -0.131 NA  
BRANCH   3   7
ATOM     7   C2  UNL     1       3.231   1.744  -3.426  1.00  0.00     0.259 A   
ATOM     8   C1  UNL     1       4.398   2.659  -4.899  1.00  0.00     0.207 A   
ATOM     9   N1  UNL     1       3.956   1.472  -4.551  1.00  0.00    -0.203 NA  
ATOM     10  N7  UNL     1       3.949   3.595  -4.016  1.00  0.00    -0.224 N   
ATOM     11  N6  UNL     1       3.186   3.032  -3.055  1.00  0.00    -0.144 NA  
ATOM     12  H22 UNL     1       4.116   4.597  -4.007  1.00  0.00     0.177 HD  
ENDBRANCH   3   7
ENDBRANCH   1   2
BRANCH   1  13
ATOM     13  N3  UNL     1      -0.375  -1.979  -0.559  1.00  0.00     0.249 N   
ATOM     14  H4  UNL     1      -0.817  -2.453   0.232  1.00  0.00     0.199 HD  
ATOM     15  H5  UNL     1       0.268  -2.654  -0.998  1.00  0.00     0.199 HD  
BRANCH  13  16
ATOM     16  C6  UNL     1      -1.429  -1.651  -1.565  1.00  0.00     0.164 C   
BRANCH  16  17
ATOM     17  C7  UNL     1      -2.527  -0.795  -0.995  1.00  0.00    -0.002 A   
ATOM     18  C8  UNL     1      -3.483  -1.351  -0.110  1.00  0.00     0.012 A   
ATOM     19  C12 UNL     1      -2.590   0.573  -1.311  1.00  0.00     0.045 A   
ATOM     20  C9  UNL     1      -4.484  -0.555   0.457  1.00  0.00     0.037 A   
ATOM     21  C11 UNL     1      -3.588   1.329  -0.733  1.00  0.00     0.109 A   
ATOM     22  C10 UNL     1      -4.508   0.782   0.127  1.00  0.00     0.108 A   
ATOM     23  O1  UNL     1      -3.783   2.660  -0.924  1.00  0.00    -0.316 OA  
ATOM     24  O2  UNL     1      -5.400   1.699   0.582  1.00  0.00    -0.316 OA  
ATOM     25  C13 UNL     1      -4.956   2.885  -0.110  1.00  0.00     0.337 C   
ENDBRANCH  16  17
ENDBRANCH  13  16
ENDBRANCH   1  13
BRANCH   1  26
ATOM     26  C14 UNL     1       1.307  -1.308   1.132  1.00  0.00     0.043 C   
ATOM     27  C15 UNL     1       0.458  -1.786   2.318  1.00  0.00     0.010 C   
ATOM     28  C18 UNL     1       2.159  -0.206   1.770  1.00  0.00     0.010 C   
ATOM     29  C16 UNL     1       1.335  -1.609   3.558  1.00  0.00     0.001 C   
ATOM     30  C17 UNL     1       2.547  -0.799   3.116  1.00  0.00     0.001 C   
ENDBRANCH   1  26
TORSDOF 6
