REMARK SMILES CC(C)[C@H]([NH2+]Cc1ccc2c(c1)OCO2)c1cn([C@H](CO)c2cccn2C)nn1
REMARK SMILES IDX 16 1 17 2 18 3 28 4 29 5 4 7 2 8 1 9 3 10 5 11 6 14 7 15
REMARK SMILES IDX 8 16 12 17 9 18 11 19 10 20 13 21 15 22 14 23 19 24 20 25
REMARK SMILES IDX 21 26 22 28 23 29 26 30 24 31 25 32 27 33
REMARK H PARENT 17 6 5 12 5 13 21 27
ROOT
ATOM     1   C13 UNL     1       0.902  -0.064  -2.288  1.00  0.00     0.127 A   
ATOM     2   C14 UNL     1       0.153   1.077  -2.126  1.00  0.00     0.046 A   
ATOM     3   N2  UNL     1      -1.003   0.825  -2.815  1.00  0.00    -0.201 N   
ATOM     4   N4  UNL     1      -0.970  -0.416  -3.352  1.00  0.00    -0.075 NA  
ATOM     5   N5  UNL     1       0.193  -0.965  -3.040  1.00  0.00    -0.132 NA  
ATOM     6   H18 UNL     1       0.314   2.008  -1.599  1.00  0.00     0.083 HD  
ENDROOT
BRANCH   1   7
ATOM     7   C4  UNL     1       2.228  -0.443  -1.719  1.00  0.00     0.117 C   
BRANCH   7   8
ATOM     8   C2  UNL     1       3.427  -0.188  -2.671  1.00  0.00     0.037 C   
ATOM     9   C1  UNL     1       3.358  -0.948  -3.999  1.00  0.00     0.014 C   
ATOM     10  C3  UNL     1       3.617   1.310  -2.943  1.00  0.00     0.014 C   
ENDBRANCH   7   8
BRANCH   7  11
ATOM     11  N1  UNL     1       2.229  -1.905  -1.326  1.00  0.00     0.249 N   
ATOM     12  H9  UNL     1       1.908  -2.428  -2.151  1.00  0.00     0.199 HD  
ATOM     13  H10 UNL     1       3.183  -2.212  -1.115  1.00  0.00     0.199 HD  
BRANCH  11  14
ATOM     14  C5  UNL     1       1.327  -2.284  -0.196  1.00  0.00     0.164 C   
BRANCH  14  15
ATOM     15  C6  UNL     1       1.723  -1.660   1.113  1.00  0.00    -0.002 A   
ATOM     16  C7  UNL     1       0.950  -0.609   1.664  1.00  0.00     0.012 A   
ATOM     17  C11 UNL     1       2.878  -2.095   1.785  1.00  0.00     0.045 A   
ATOM     18  C8  UNL     1       1.323   0.005   2.864  1.00  0.00     0.037 A   
ATOM     19  C10 UNL     1       3.217  -1.468   2.966  1.00  0.00     0.109 A   
ATOM     20  C9  UNL     1       2.463  -0.447   3.491  1.00  0.00     0.108 A   
ATOM     21  O1  UNL     1       4.299  -1.762   3.733  1.00  0.00    -0.316 OA  
ATOM     22  O2  UNL     1       2.973   0.028   4.656  1.00  0.00    -0.316 OA  
ATOM     23  C12 UNL     1       4.122  -0.830   4.826  1.00  0.00     0.337 C   
ENDBRANCH  14  15
ENDBRANCH  11  14
ENDBRANCH   7  11
ENDBRANCH   1   7
BRANCH   3  24
ATOM     24  C15 UNL     1      -2.202   1.652  -2.936  1.00  0.00     0.169 C   
BRANCH  24  25
ATOM     25  C16 UNL     1      -1.947   2.943  -3.739  1.00  0.00     0.187 C   
BRANCH  25  26
ATOM     26  O3  UNL     1      -0.925   3.773  -3.180  1.00  0.00    -0.394 OA  
ATOM     27  H22 UNL     1      -0.935   4.609  -3.683  1.00  0.00     0.210 HD  
ENDBRANCH  25  26
ENDBRANCH  24  25
BRANCH  24  28
ATOM     28  C17 UNL     1      -2.817   1.876  -1.568  1.00  0.00     0.034 A   
ATOM     29  C18 UNL     1      -2.560   2.859  -0.623  1.00  0.00     0.023 A   
ATOM     30  N3  UNL     1      -3.789   1.053  -1.029  1.00  0.00    -0.312 N   
ATOM     31  C19 UNL     1      -3.379   2.616   0.501  1.00  0.00     0.017 A   
ATOM     32  C20 UNL     1      -4.123   1.495   0.225  1.00  0.00     0.074 A   
ATOM     33  C21 UNL     1      -4.390  -0.105  -1.660  1.00  0.00     0.135 C   
ENDBRANCH  24  28
ENDBRANCH   3  24
TORSDOF 9
