REMARK SMILES CC(C)[C@H]([NH2+]Cc1ccc2c(c1)OCO2)c1cn([C@@H](CO)c2cccn2C)nn1
REMARK SMILES IDX 16 1 17 2 18 3 28 4 29 5 4 7 2 8 1 9 3 10 5 11 6 14 7 15
REMARK SMILES IDX 8 16 12 17 9 18 11 19 10 20 13 21 15 22 14 23 19 24 20 25
REMARK SMILES IDX 21 26 22 28 23 29 26 30 24 31 25 32 27 33
REMARK H PARENT 17 6 5 12 5 13 21 27
ROOT
ATOM     1   C13 UNL     1      -0.185   1.639   1.010  1.00  0.00     0.127 A   
ATOM     2   C14 UNL     1      -0.506   0.306   0.924  1.00  0.00     0.046 A   
ATOM     3   N2  UNL     1      -1.769   0.228   1.447  1.00  0.00    -0.201 N   
ATOM     4   N4  UNL     1      -2.203   1.454   1.817  1.00  0.00    -0.075 NA  
ATOM     5   N5  UNL     1      -1.239   2.323   1.559  1.00  0.00    -0.132 NA  
ATOM     6   H18 UNL     1       0.011  -0.564   0.540  1.00  0.00     0.083 HD  
ENDROOT
BRANCH   1   7
ATOM     7   C4  UNL     1       1.022   2.381   0.538  1.00  0.00     0.117 C   
BRANCH   7   8
ATOM     8   C2  UNL     1       1.921   2.848   1.718  1.00  0.00     0.037 C   
ATOM     9   C1  UNL     1       3.137   3.663   1.254  1.00  0.00     0.014 C   
ATOM     10  C3  UNL     1       2.428   1.651   2.538  1.00  0.00     0.014 C   
ENDBRANCH   7   8
BRANCH   7  11
ATOM     11  N1  UNL     1       0.580   3.593  -0.259  1.00  0.00     0.249 N   
ATOM     12  H9  UNL     1      -0.016   4.149   0.369  1.00  0.00     0.199 HD  
ATOM     13  H10 UNL     1       1.385   4.167  -0.515  1.00  0.00     0.199 HD  
BRANCH  11  14
ATOM     14  C5  UNL     1      -0.211   3.321  -1.500  1.00  0.00     0.164 C   
BRANCH  14  15
ATOM     15  C6  UNL     1       0.575   2.586  -2.550  1.00  0.00    -0.002 A   
ATOM     16  C7  UNL     1       1.600   3.246  -3.271  1.00  0.00     0.012 A   
ATOM     17  C11 UNL     1       0.314   1.228  -2.804  1.00  0.00     0.045 A   
ATOM     18  C8  UNL     1       2.359   2.562  -4.226  1.00  0.00     0.037 A   
ATOM     19  C10 UNL     1       1.082   0.585  -3.751  1.00  0.00     0.109 A   
ATOM     20  C9  UNL     1       2.076   1.232  -4.441  1.00  0.00     0.108 A   
ATOM     21  O1  UNL     1       0.965  -0.720  -4.111  1.00  0.00    -0.316 OA  
ATOM     22  O2  UNL     1       2.711   0.417  -5.323  1.00  0.00    -0.316 OA  
ATOM     23  C12 UNL     1       1.989  -0.818  -5.127  1.00  0.00     0.337 C   
ENDBRANCH  14  15
ENDBRANCH  11  14
ENDBRANCH   7  11
ENDBRANCH   1   7
BRANCH   3  24
ATOM     24  C15 UNL     1      -2.636  -0.939   1.596  1.00  0.00     0.169 C   
BRANCH  24  25
ATOM     25  C16 UNL     1      -3.384  -1.248   0.283  1.00  0.00     0.187 C   
BRANCH  25  26
ATOM     26  O3  UNL     1      -2.510  -1.409  -0.839  1.00  0.00    -0.394 OA  
ATOM     27  H22 UNL     1      -3.038  -1.813  -1.552  1.00  0.00     0.210 HD  
ENDBRANCH  25  26
ENDBRANCH  24  25
BRANCH  24  28
ATOM     28  C17 UNL     1      -1.870  -2.115   2.168  1.00  0.00     0.034 A   
ATOM     29  C18 UNL     1      -1.260  -3.184   1.528  1.00  0.00     0.023 A   
ATOM     30  N3  UNL     1      -1.650  -2.286   3.523  1.00  0.00    -0.312 N   
ATOM     31  C19 UNL     1      -0.666  -4.006   2.510  1.00  0.00     0.017 A   
ATOM     32  C20 UNL     1      -0.920  -3.427   3.731  1.00  0.00     0.074 A   
ATOM     33  C21 UNL     1      -2.103  -1.415   4.589  1.00  0.00     0.135 C   
ENDBRANCH  24  28
ENDBRANCH   3  24
TORSDOF 9
