REMARK SMILES [O-]N([O-])c1cccc(Cn2cc([C@@H]([NH2+]Cc3ccc4c(c3)OCO4)C3CCCCC3)nn2)c1
REMARK SMILES IDX 10 1 11 2 12 3 31 4 32 5 9 7 8 8 4 9 5 10 33 11 6 12 7 13
REMARK SMILES IDX 2 14 1 15 3 16 13 17 14 18 15 21 16 22 17 23 21 24 18 25
REMARK SMILES IDX 20 26 19 27 22 28 24 29 23 30 25 31 26 32 30 33 27 34 29 35
REMARK SMILES IDX 28 36
REMARK H PARENT 11 6 14 19 14 20
ROOT
ATOM     1   N2  UNL     1       0.532   3.550  -0.262  1.00  0.00    -0.208 N   
ATOM     2   C7  UNL     1      -0.066   2.420   0.222  1.00  0.00     0.046 A   
ATOM     3   C8  UNL     1       0.457   1.407  -0.551  1.00  0.00     0.127 A   
ATOM     4   N4  UNL     1       1.323   1.946  -1.469  1.00  0.00    -0.132 NA  
ATOM     5   N5  UNL     1       1.358   3.255  -1.284  1.00  0.00    -0.076 NA  
ATOM     6   H6  UNL     1      -0.784   2.444   1.031  1.00  0.00     0.083 HD  
ENDROOT
BRANCH   1   7
ATOM     7   C6  UNL     1       0.357   4.928   0.173  1.00  0.00     0.169 C   
BRANCH   7   8
ATOM     8   C5  UNL     1      -1.093   5.358   0.113  1.00  0.00    -0.026 A   
ATOM     9   C1  UNL     1      -3.170   5.675  -1.113  1.00  0.00     0.118 A   
ATOM     10  C2  UNL     1      -3.797   6.163   0.038  1.00  0.00     0.031 A   
ATOM     11  C24 UNL     1      -1.821   5.287  -1.087  1.00  0.00     0.036 A   
ATOM     12  C3  UNL     1      -3.068   6.255   1.225  1.00  0.00     0.003 A   
ATOM     13  C4  UNL     1      -1.729   5.856   1.262  1.00  0.00     0.005 A   
BRANCH   9  14
ATOM     14  N1  UNL     1      -3.937   5.537  -2.354  1.00  0.00     0.092 N   
ATOM     15  O1  UNL     1      -3.444   4.836  -3.252  1.00  0.00    -0.138 OA  
ATOM     16  O2  UNL     1      -5.036   6.104  -2.419  1.00  0.00    -0.138 OA  
ENDBRANCH   9  14
ENDBRANCH   7   8
ENDBRANCH   1   7
BRANCH   3  17
ATOM     17  C9  UNL     1       0.180  -0.067  -0.575  1.00  0.00     0.117 C   
BRANCH  17  18
ATOM     18  N3  UNL     1       0.322  -0.537  -2.006  1.00  0.00     0.249 N   
ATOM     19  H8  UNL     1      -0.216   0.126  -2.577  1.00  0.00     0.199 HD  
ATOM     20  H9  UNL     1       1.292  -0.367  -2.303  1.00  0.00     0.199 HD  
BRANCH  18  21
ATOM     21  C10 UNL     1      -0.118  -1.909  -2.365  1.00  0.00     0.164 C   
BRANCH  21  22
ATOM     22  C11 UNL     1      -1.592  -2.121  -2.154  1.00  0.00    -0.002 A   
ATOM     23  C12 UNL     1      -2.528  -1.580  -3.070  1.00  0.00     0.012 A   
ATOM     24  C16 UNL     1      -2.056  -2.818  -1.025  1.00  0.00     0.045 A   
ATOM     25  C13 UNL     1      -3.904  -1.726  -2.864  1.00  0.00     0.037 A   
ATOM     26  C15 UNL     1      -3.419  -2.939  -0.849  1.00  0.00     0.109 A   
ATOM     27  C14 UNL     1      -4.317  -2.409  -1.742  1.00  0.00     0.108 A   
ATOM     28  O3  UNL     1      -4.028  -3.567   0.191  1.00  0.00    -0.316 OA  
ATOM     29  O4  UNL     1      -5.605  -2.640  -1.379  1.00  0.00    -0.316 OA  
ATOM     30  C17 UNL     1      -5.421  -3.397  -0.165  1.00  0.00     0.337 C   
ENDBRANCH  21  22
ENDBRANCH  18  21
ENDBRANCH  17  18
BRANCH  17  31
ATOM     31  C18 UNL     1       1.084  -0.894   0.377  1.00  0.00     0.043 C   
ATOM     32  C19 UNL     1       2.595  -0.772   0.087  1.00  0.00     0.010 C   
ATOM     33  C23 UNL     1       0.797  -0.558   1.856  1.00  0.00     0.010 C   
ATOM     34  C20 UNL     1       3.432  -1.610   1.055  1.00  0.00     0.001 C   
ATOM     35  C22 UNL     1       1.633  -1.413   2.807  1.00  0.00     0.001 C   
ATOM     36  C21 UNL     1       3.121  -1.277   2.511  1.00  0.00     0.000 C   
ENDBRANCH  17  31
ENDBRANCH   3  17
TORSDOF 8
