REMARK SMILES CC(C)C[C@H]([NH2+]Cc1ccc2c(c1)OCO2)c1cn(-c2ccc(F)c(CO)c2)nn1
REMARK SMILES IDX 17 1 18 2 19 3 29 4 30 5 5 6 4 7 2 8 1 9 3 10 6 11 7 14 8 15
REMARK SMILES IDX 9 16 13 17 10 18 12 19 11 20 14 21 16 22 15 23 20 24 21 25
REMARK SMILES IDX 28 26 22 27 25 28 23 29 24 30 26 31 27 32
REMARK H PARENT 6 12 6 13 27 33
ROOT
ATOM     1   C14 UNL     1      -0.006   0.877  -0.408  1.00  0.00     0.127 A   
ATOM     2   C15 UNL     1       0.067  -0.220  -1.237  1.00  0.00     0.135 A   
ATOM     3   N2  UNL     1       0.826   0.193  -2.315  1.00  0.00    -0.181 N   
ATOM     4   N3  UNL     1       1.217   1.476  -2.104  1.00  0.00    -0.071 NA  
ATOM     5   N4  UNL     1       0.708   1.902  -0.960  1.00  0.00    -0.131 NA  
ENDROOT
BRANCH   1   6
ATOM     6   C5  UNL     1      -0.662   1.066   0.919  1.00  0.00     0.114 C   
BRANCH   6   7
ATOM     7   C4  UNL     1      -2.035   1.759   0.806  1.00  0.00     0.064 C   
BRANCH   7   8
ATOM     8   C2  UNL     1      -3.111   0.968   0.033  1.00  0.00    -0.012 C   
ATOM     9   C1  UNL     1      -4.394   1.799  -0.060  1.00  0.00     0.007 C   
ATOM     10  C3  UNL     1      -3.420  -0.383   0.680  1.00  0.00     0.007 C   
ENDBRANCH   7   8
ENDBRANCH   6   7
BRANCH   6  11
ATOM     11  N1  UNL     1       0.197   1.948   1.806  1.00  0.00     0.249 N   
ATOM     12  H11 UNL     1      -0.335   2.235   2.633  1.00  0.00     0.199 HD  
ATOM     13  H12 UNL     1       0.400   2.799   1.264  1.00  0.00     0.199 HD  
BRANCH  11  14
ATOM     14  C6  UNL     1       1.506   1.377   2.245  1.00  0.00     0.164 C   
BRANCH  14  15
ATOM     15  C7  UNL     1       1.355   0.165   3.121  1.00  0.00    -0.002 A   
ATOM     16  C8  UNL     1       1.695  -1.118   2.628  1.00  0.00     0.012 A   
ATOM     17  C12 UNL     1       0.846   0.292   4.426  1.00  0.00     0.045 A   
ATOM     18  C9  UNL     1       1.524  -2.260   3.417  1.00  0.00     0.037 A   
ATOM     19  C11 UNL     1       0.689  -0.855   5.176  1.00  0.00     0.109 A   
ATOM     20  C10 UNL     1       1.017  -2.095   4.687  1.00  0.00     0.108 A   
ATOM     21  O1  UNL     1       0.207  -0.908   6.445  1.00  0.00    -0.316 OA  
ATOM     22  O2  UNL     1       0.783  -3.085   5.586  1.00  0.00    -0.316 OA  
ATOM     23  C13 UNL     1       0.298  -2.326   6.714  1.00  0.00     0.337 C   
ENDBRANCH  14  15
ENDBRANCH  11  14
ENDBRANCH   6  11
ENDBRANCH   1   6
BRANCH   3  24
ATOM     24  C16 UNL     1       1.205  -0.531  -3.473  1.00  0.00     0.058 A   
ATOM     25  C17 UNL     1       2.000   0.090  -4.449  1.00  0.00     0.029 A   
ATOM     26  C22 UNL     1       0.797  -1.862  -3.655  1.00  0.00     0.035 A   
ATOM     27  C18 UNL     1       2.381  -0.616  -5.591  1.00  0.00     0.041 A   
ATOM     28  C20 UNL     1       1.184  -2.580  -4.800  1.00  0.00     0.015 A   
ATOM     29  C19 UNL     1       1.972  -1.935  -5.757  1.00  0.00     0.128 A   
ATOM     30  F1  UNL     1       2.345  -2.594  -6.862  1.00  0.00    -0.207 F   
BRANCH  28  31
ATOM     31  C21 UNL     1       0.768  -4.004  -5.050  1.00  0.00     0.194 C   
BRANCH  31  32
ATOM     32  O3  UNL     1       0.113  -4.559  -3.912  1.00  0.00    -0.392 OA  
ATOM     33  H25 UNL     1      -0.104  -5.478  -4.149  1.00  0.00     0.211 HD  
ENDBRANCH  31  32
ENDBRANCH  28  31
ENDBRANCH   3  24
TORSDOF 9
