REMARK SMILES CC(C)C[C@H]([NH2+]Cc1ccc2c(c1)OCO2)c1cn(CCc2cc(Cl)ccc2O)nn1
REMARK SMILES IDX 17 1 18 2 19 3 30 4 31 5 5 7 4 8 2 9 1 10 3 11 6 12 7 15
REMARK SMILES IDX 8 16 9 17 13 18 10 19 12 20 11 21 14 22 16 23 15 24 20 25
REMARK SMILES IDX 21 26 22 27 23 28 28 29 24 30 27 31 26 32 25 33 29 34
REMARK H PARENT 18 6 6 13 6 14 29 35
ROOT
ATOM     1   C14 UNL     1       0.131   0.935   1.884  1.00  0.00     0.127 A   
ATOM     2   C15 UNL     1       1.373   1.238   1.371  1.00  0.00     0.045 A   
ATOM     3   N2  UNL     1       2.225   0.990   2.410  1.00  0.00    -0.212 N   
ATOM     4   N3  UNL     1       1.552   0.567   3.496  1.00  0.00    -0.076 NA  
ATOM     5   N4  UNL     1       0.267   0.525   3.185  1.00  0.00    -0.132 NA  
ATOM     6   H20 UNL     1       1.721   1.567   0.402  1.00  0.00     0.083 HD  
ENDROOT
BRANCH   1   7
ATOM     7   C5  UNL     1      -1.215   0.907   1.245  1.00  0.00     0.114 C   
BRANCH   7   8
ATOM     8   C4  UNL     1      -2.121   2.059   1.719  1.00  0.00     0.064 C   
BRANCH   8   9
ATOM     9   C2  UNL     1      -1.617   3.475   1.363  1.00  0.00    -0.012 C   
ATOM     10  C1  UNL     1      -1.493   3.688  -0.146  1.00  0.00     0.007 C   
ATOM     11  C3  UNL     1      -2.563   4.523   1.955  1.00  0.00     0.007 C   
ENDBRANCH   8   9
ENDBRANCH   7   8
BRANCH   7  12
ATOM     12  N1  UNL     1      -1.925  -0.385   1.601  1.00  0.00     0.249 N   
ATOM     13  H11 UNL     1      -2.907  -0.339   1.315  1.00  0.00     0.199 HD  
ATOM     14  H12 UNL     1      -1.906  -0.450   2.629  1.00  0.00     0.199 HD  
BRANCH  12  15
ATOM     15  C6  UNL     1      -1.317  -1.642   1.066  1.00  0.00     0.164 C   
BRANCH  15  16
ATOM     16  C7  UNL     1      -1.398  -1.735  -0.432  1.00  0.00    -0.002 A   
ATOM     17  C8  UNL     1      -0.258  -1.467  -1.227  1.00  0.00     0.012 A   
ATOM     18  C12 UNL     1      -2.616  -2.055  -1.056  1.00  0.00     0.045 A   
ATOM     19  C9  UNL     1      -0.325  -1.517  -2.623  1.00  0.00     0.037 A   
ATOM     20  C11 UNL     1      -2.648  -2.095  -2.435  1.00  0.00     0.109 A   
ATOM     21  C10 UNL     1      -1.535  -1.833  -3.196  1.00  0.00     0.108 A   
ATOM     22  O1  UNL     1      -3.740  -2.381  -3.191  1.00  0.00    -0.316 OA  
ATOM     23  O2  UNL     1      -1.786  -1.924  -4.528  1.00  0.00    -0.316 OA  
ATOM     24  C13 UNL     1      -3.179  -2.307  -4.522  1.00  0.00     0.337 C   
ENDBRANCH  15  16
ENDBRANCH  12  15
ENDBRANCH   7  12
ENDBRANCH   1   7
BRANCH   3  25
ATOM     25  C16 UNL     1       3.673   1.059   2.416  1.00  0.00     0.139 C   
BRANCH  25  26
ATOM     26  C17 UNL     1       4.333  -0.315   2.553  1.00  0.00     0.059 C   
BRANCH  26  27
ATOM     27  C18 UNL     1       3.976  -1.267   1.433  1.00  0.00    -0.015 A   
ATOM     28  C19 UNL     1       3.051  -2.298   1.661  1.00  0.00     0.027 A   
ATOM     29  C23 UNL     1       4.533  -1.139   0.155  1.00  0.00     0.075 A   
ATOM     30  C20 UNL     1       2.703  -3.172   0.632  1.00  0.00     0.041 A   
ATOM     31  C22 UNL     1       4.198  -2.020  -0.872  1.00  0.00     0.035 A   
ATOM     32  C21 UNL     1       3.277  -3.042  -0.631  1.00  0.00     0.023 A   
ATOM     33  CL1 UNL     1       1.517  -4.386   0.913  1.00  0.00    -0.084 Cl  
BRANCH  29  34
ATOM     34  O3  UNL     1       5.408  -0.117  -0.073  1.00  0.00    -0.361 OA  
ATOM     35  H28 UNL     1       5.882  -0.285  -0.907  1.00  0.00     0.218 HD  
ENDBRANCH  29  34
ENDBRANCH  26  27
ENDBRANCH  25  26
ENDBRANCH   3  25
TORSDOF 10
