REMARK SMILES CC(C)C[C@H]([NH2+]Cc1ccc2c(c1)OCO2)c1cn(CCc2c(F)cccc2F)nn1
REMARK SMILES IDX 17 1 18 2 19 3 30 4 31 5 5 7 4 8 2 9 1 10 3 11 6 12 7 15
REMARK SMILES IDX 8 16 9 17 13 18 10 19 12 20 11 21 14 22 16 23 15 24 20 25
REMARK SMILES IDX 21 26 22 27 23 28 28 29 25 30 27 31 26 32 24 33 29 34
REMARK H PARENT 18 6 6 13 6 14
ROOT
ATOM     1   C14 UNL     1       0.519   0.119  -1.534  1.00  0.00     0.127 A   
ATOM     2   C15 UNL     1       1.540   0.992  -1.229  1.00  0.00     0.045 A   
ATOM     3   N2  UNL     1       2.449   0.794  -2.230  1.00  0.00    -0.212 N   
ATOM     4   N3  UNL     1       1.984  -0.083  -3.137  1.00  0.00    -0.076 NA  
ATOM     5   N4  UNL     1       0.812  -0.523  -2.711  1.00  0.00    -0.132 NA  
ATOM     6   H20 UNL     1       1.718   1.675  -0.409  1.00  0.00     0.083 HD  
ENDROOT
BRANCH   1   7
ATOM     7   C5  UNL     1      -0.756  -0.196  -0.822  1.00  0.00     0.114 C   
BRANCH   7   8
ATOM     8   C4  UNL     1      -0.515  -1.247   0.281  1.00  0.00     0.064 C   
BRANCH   8   9
ATOM     9   C2  UNL     1      -1.720  -1.569   1.192  1.00  0.00    -0.012 C   
ATOM     10  C1  UNL     1      -2.242  -0.337   1.931  1.00  0.00     0.007 C   
ATOM     11  C3  UNL     1      -1.321  -2.646   2.206  1.00  0.00     0.007 C   
ENDBRANCH   8   9
ENDBRANCH   7   8
BRANCH   7  12
ATOM     12  N1  UNL     1      -1.776  -0.734  -1.797  1.00  0.00     0.249 N   
ATOM     13  H11 UNL     1      -1.278  -1.430  -2.371  1.00  0.00     0.199 HD  
ATOM     14  H12 UNL     1      -2.529  -1.227  -1.313  1.00  0.00     0.199 HD  
BRANCH  12  15
ATOM     15  C6  UNL     1      -2.377   0.262  -2.734  1.00  0.00     0.164 C   
BRANCH  15  16
ATOM     16  C7  UNL     1      -3.285   1.236  -2.035  1.00  0.00    -0.002 A   
ATOM     17  C8  UNL     1      -2.897   2.590  -1.885  1.00  0.00     0.012 A   
ATOM     18  C12 UNL     1      -4.511   0.804  -1.499  1.00  0.00     0.045 A   
ATOM     19  C9  UNL     1      -3.712   3.499  -1.202  1.00  0.00     0.037 A   
ATOM     20  C11 UNL     1      -5.288   1.726  -0.829  1.00  0.00     0.109 A   
ATOM     21  C10 UNL     1      -4.900   3.035  -0.683  1.00  0.00     0.108 A   
ATOM     22  O1  UNL     1      -6.487   1.471  -0.244  1.00  0.00    -0.316 OA  
ATOM     23  O2  UNL     1      -5.809   3.770   0.009  1.00  0.00    -0.316 OA  
ATOM     24  C13 UNL     1      -6.827   2.780   0.267  1.00  0.00     0.337 C   
ENDBRANCH  15  16
ENDBRANCH  12  15
ENDBRANCH   7  12
ENDBRANCH   1   7
BRANCH   3  25
ATOM     25  C16 UNL     1       3.761   1.386  -2.384  1.00  0.00     0.139 C   
BRANCH  25  26
ATOM     26  C17 UNL     1       4.875   0.498  -1.828  1.00  0.00     0.063 C   
BRANCH  26  27
ATOM     27  C18 UNL     1       4.898   0.449  -0.322  1.00  0.00     0.025 A   
ATOM     28  C19 UNL     1       4.374  -0.636   0.382  1.00  0.00     0.129 A   
ATOM     29  C23 UNL     1       5.435   1.505   0.416  1.00  0.00     0.129 A   
ATOM     30  C20 UNL     1       4.399  -0.680   1.775  1.00  0.00     0.040 A   
ATOM     31  C22 UNL     1       5.467   1.480   1.809  1.00  0.00     0.040 A   
ATOM     32  C21 UNL     1       4.951   0.381   2.493  1.00  0.00     0.006 A   
ATOM     33  F1  UNL     1       3.808  -1.653  -0.283  1.00  0.00    -0.207 F   
ATOM     34  F2  UNL     1       5.915   2.580  -0.224  1.00  0.00    -0.207 F   
ENDBRANCH  26  27
ENDBRANCH  25  26
ENDBRANCH   3  25
TORSDOF 9
