REMARK SMILES CC(C)C[C@H]([NH2+]Cc1ccc2c(c1)OCO2)c1cn(-c2cccc(N([O-])[O-])c2)nn1
REMARK SMILES IDX 17 1 18 2 19 3 29 4 30 5 5 6 4 7 2 8 1 9 3 10 6 11 7 14 8 15
REMARK SMILES IDX 9 16 13 17 10 18 12 19 11 20 14 21 16 22 15 23 20 24 21 25
REMARK SMILES IDX 28 26 22 27 24 28 23 29 25 30 26 31 27 32
REMARK H PARENT 6 12 6 13
ROOT
ATOM     1   C14 UNL     1      -0.818  -1.252   0.586  1.00  0.00     0.127 A   
ATOM     2   C15 UNL     1      -0.491  -0.173   1.378  1.00  0.00     0.135 A   
ATOM     3   N2  UNL     1      -0.714  -0.598   2.673  1.00  0.00    -0.181 N   
ATOM     4   N4  UNL     1      -1.114  -1.895   2.643  1.00  0.00    -0.071 NA  
ATOM     5   N5  UNL     1      -1.193  -2.294   1.384  1.00  0.00    -0.131 NA  
ENDROOT
BRANCH   1   6
ATOM     6   C5  UNL     1      -0.778  -1.436  -0.895  1.00  0.00     0.114 C   
BRANCH   6   7
ATOM     7   C4  UNL     1      -2.165  -1.268  -1.548  1.00  0.00     0.064 C   
BRANCH   7   8
ATOM     8   C2  UNL     1      -2.788   0.139  -1.419  1.00  0.00    -0.012 C   
ATOM     9   C1  UNL     1      -4.185   0.143  -2.047  1.00  0.00     0.007 C   
ATOM     10  C3  UNL     1      -1.927   1.220  -2.074  1.00  0.00     0.007 C   
ENDBRANCH   7   8
ENDBRANCH   6   7
BRANCH   6  11
ATOM     11  N1  UNL     1      -0.304  -2.836  -1.240  1.00  0.00     0.249 N   
ATOM     12  H11 UNL     1      -0.907  -3.486  -0.717  1.00  0.00     0.199 HD  
ATOM     13  H12 UNL     1      -0.454  -3.019  -2.237  1.00  0.00     0.199 HD  
BRANCH  11  14
ATOM     14  C6  UNL     1       1.112  -3.166  -0.897  1.00  0.00     0.164 C   
BRANCH  14  15
ATOM     15  C7  UNL     1       2.107  -2.352  -1.677  1.00  0.00    -0.002 A   
ATOM     16  C8  UNL     1       2.344  -2.627  -3.045  1.00  0.00     0.012 A   
ATOM     17  C12 UNL     1       2.780  -1.283  -1.059  1.00  0.00     0.045 A   
ATOM     18  C9  UNL     1       3.235  -1.846  -3.790  1.00  0.00     0.037 A   
ATOM     19  C11 UNL     1       3.647  -0.531  -1.824  1.00  0.00     0.109 A   
ATOM     20  C10 UNL     1       3.869  -0.804  -3.150  1.00  0.00     0.108 A   
ATOM     21  O1  UNL     1       4.362   0.538  -1.386  1.00  0.00    -0.316 OA  
ATOM     22  O2  UNL     1       4.755   0.056  -3.715  1.00  0.00    -0.316 OA  
ATOM     23  C13 UNL     1       5.093   0.888  -2.584  1.00  0.00     0.337 C   
ENDBRANCH  14  15
ENDBRANCH  11  14
ENDBRANCH   6  11
ENDBRANCH   1   6
BRANCH   3  24
ATOM     24  C16 UNL     1      -0.560   0.115   3.890  1.00  0.00     0.060 A   
ATOM     25  C17 UNL     1      -0.857  -0.521   5.107  1.00  0.00     0.026 A   
ATOM     26  C21 UNL     1      -0.118   1.445   3.896  1.00  0.00     0.057 A   
ATOM     27  C18 UNL     1      -0.717   0.164   6.319  1.00  0.00     0.004 A   
ATOM     28  C20 UNL     1       0.022   2.121   5.121  1.00  0.00     0.120 A   
ATOM     29  C19 UNL     1      -0.276   1.486   6.332  1.00  0.00     0.031 A   
BRANCH  28  30
ATOM     30  N3  UNL     1       0.488   3.514   5.125  1.00  0.00     0.092 N   
ATOM     31  O3  UNL     1       0.903   3.976   4.053  1.00  0.00    -0.138 OA  
ATOM     32  O4  UNL     1       0.438   4.137   6.193  1.00  0.00    -0.138 OA  
ENDBRANCH  28  30
ENDBRANCH   3  24
TORSDOF 8
