REMARK SMILES Cc1cc(=[N+]2C=C([C@H](CC(C)C)[NH2+]Cc3ccc4c(c3)OCO4)N=N2)cc(C)n1C
REMARK SMILES IDX 8 1 7 2 5 3 6 4 25 5 24 6 4 7 2 8 3 9 29 10 27 11 26 12 1 13
REMARK SMILES IDX 30 14 28 15 9 16 10 17 11 18 12 19 13 20 14 23 15 24 16 25
REMARK SMILES IDX 20 26 17 27 19 28 18 29 21 30 23 31 22 32
REMARK H PARENT 13 21 13 22
ROOT
ATOM     1   C7  UNL     1       1.110   0.725  -2.078  1.00  0.00     0.114 C   
ENDROOT
BRANCH   1   2
ATOM     2   C6  UNL     1       1.020  -0.278  -0.967  1.00  0.00     0.127 C   
ATOM     3   N1  UNL     1       0.486  -1.608   0.691  1.00  0.00    -0.181 N   
ATOM     4   C5  UNL     1      -0.008  -0.590  -0.099  1.00  0.00     0.135 C   
ATOM     5   N4  UNL     1       1.773  -1.846   0.343  1.00  0.00    -0.071 NA  
ATOM     6   N3  UNL     1       2.099  -1.061  -0.670  1.00  0.00    -0.131 NA  
BRANCH   3   7
ATOM     7   C4  UNL     1      -0.151  -2.350   1.722  1.00  0.00     0.061 A   
ATOM     8   C2  UNL     1      -0.057  -4.098   3.412  1.00  0.00     0.008 A   
ATOM     9   C3  UNL     1       0.554  -3.345   2.396  1.00  0.00     0.045 A   
ATOM     10  N5  UNL     1      -1.372  -3.882   3.719  1.00  0.00    -0.311 N   
ATOM     11  C21 UNL     1      -2.074  -2.879   3.108  1.00  0.00     0.008 A   
ATOM     12  C20 UNL     1      -1.470  -2.116   2.088  1.00  0.00     0.045 A   
ATOM     13  C1  UNL     1       0.753  -5.153   4.119  1.00  0.00     0.062 C   
ATOM     14  C23 UNL     1      -2.035  -4.738   4.740  1.00  0.00     0.135 C   
ATOM     15  C22 UNL     1      -3.501  -2.578   3.488  1.00  0.00     0.062 C   
ENDBRANCH   3   7
ENDBRANCH   1   2
BRANCH   1  16
ATOM     16  C8  UNL     1       0.766   0.111  -3.451  1.00  0.00     0.064 C   
BRANCH  16  17
ATOM     17  C9  UNL     1      -0.681  -0.404  -3.604  1.00  0.00    -0.012 C   
ATOM     18  C10 UNL     1      -1.719   0.703  -3.412  1.00  0.00     0.007 C   
ATOM     19  C11 UNL     1      -0.858  -1.041  -4.985  1.00  0.00     0.007 C   
ENDBRANCH  16  17
ENDBRANCH   1  16
BRANCH   1  20
ATOM     20  N2  UNL     1       2.514   1.288  -2.201  1.00  0.00     0.249 N   
ATOM     21  H16 UNL     1       2.586   1.847  -3.058  1.00  0.00     0.199 HD  
ATOM     22  H17 UNL     1       3.154   0.489  -2.313  1.00  0.00     0.199 HD  
BRANCH  20  23
ATOM     23  C12 UNL     1       3.019   2.110  -1.060  1.00  0.00     0.164 C   
BRANCH  23  24
ATOM     24  C13 UNL     1       2.185   3.333  -0.802  1.00  0.00    -0.002 A   
ATOM     25  C14 UNL     1       2.234   4.436  -1.689  1.00  0.00     0.012 A   
ATOM     26  C18 UNL     1       1.318   3.373   0.304  1.00  0.00     0.045 A   
ATOM     27  C15 UNL     1       1.424   5.558  -1.483  1.00  0.00     0.037 A   
ATOM     28  C17 UNL     1       0.532   4.494   0.476  1.00  0.00     0.109 A   
ATOM     29  C16 UNL     1       0.583   5.555  -0.393  1.00  0.00     0.108 A   
ATOM     30  O1  UNL     1      -0.364   4.684   1.479  1.00  0.00    -0.316 OA  
ATOM     31  O2  UNL     1      -0.271   6.550  -0.044  1.00  0.00    -0.316 OA  
ATOM     32  C19 UNL     1      -0.831   6.022   1.176  1.00  0.00     0.337 C   
ENDBRANCH  23  24
ENDBRANCH  20  23
ENDBRANCH   1  20
TORSDOF 7
