REMARK SMILES COc1cccc(Cn2cc([C@@H]([NH2+]Cc3ccc4c(c3)OCO4)C(C)C)nn2)c1OC
REMARK SMILES IDX 9 1 10 2 11 3 27 4 28 5 8 7 7 8 3 9 4 10 29 11 5 12 6 13
REMARK SMILES IDX 2 14 1 15 30 16 31 17 12 18 13 19 14 22 15 23 16 24 20 25
REMARK SMILES IDX 17 26 19 27 18 28 21 29 23 30 22 31 24 32 25 33 26 34
REMARK H PARENT 10 6 13 20 13 21
ROOT
ATOM     1   N1  UNL     1      -1.963  -2.206   0.245  1.00  0.00    -0.208 N   
ATOM     2   C8  UNL     1      -1.031  -1.712   1.120  1.00  0.00     0.046 A   
ATOM     3   C9  UNL     1      -1.689  -0.684   1.753  1.00  0.00     0.127 A   
ATOM     4   N3  UNL     1      -2.995  -0.656   1.338  1.00  0.00    -0.132 NA  
ATOM     5   N4  UNL     1      -3.157  -1.607   0.432  1.00  0.00    -0.076 NA  
ATOM     6   H9  UNL     1      -0.005  -2.053   1.126  1.00  0.00     0.083 HD  
ENDROOT
BRANCH   1   7
ATOM     7   C7  UNL     1      -1.775  -3.152  -0.846  1.00  0.00     0.172 C   
BRANCH   7   8
ATOM     8   C6  UNL     1      -0.493  -2.904  -1.609  1.00  0.00     0.004 A   
ATOM     9   C2  UNL     1       1.001  -1.418  -2.869  1.00  0.00     0.105 A   
ATOM     10  C3  UNL     1       1.940  -2.448  -2.944  1.00  0.00     0.036 A   
ATOM     11  C22 UNL     1      -0.229  -1.668  -2.232  1.00  0.00     0.110 A   
ATOM     12  C4  UNL     1       1.668  -3.696  -2.376  1.00  0.00     0.003 A   
ATOM     13  C5  UNL     1       0.465  -3.921  -1.708  1.00  0.00     0.008 A   
BRANCH   9  14
ATOM     14  O1  UNL     1       1.189  -0.149  -3.351  1.00  0.00    -0.347 OA  
ATOM     15  C1  UNL     1       2.444   0.143  -3.953  1.00  0.00     0.203 C   
ENDBRANCH   9  14
BRANCH  11  16
ATOM     16  O4  UNL     1      -1.179  -0.679  -2.114  1.00  0.00    -0.346 OA  
ATOM     17  C23 UNL     1      -1.797  -0.411  -3.376  1.00  0.00     0.203 C   
ENDBRANCH  11  16
ENDBRANCH   7   8
ENDBRANCH   1   7
BRANCH   3  18
ATOM     18  C10 UNL     1      -1.169   0.406   2.627  1.00  0.00     0.117 C   
BRANCH  18  19
ATOM     19  N2  UNL     1      -1.723   1.736   2.159  1.00  0.00     0.249 N   
ATOM     20  H11 UNL     1      -2.743   1.614   2.097  1.00  0.00     0.199 HD  
ATOM     21  H12 UNL     1      -1.536   2.463   2.855  1.00  0.00     0.199 HD  
BRANCH  19  22
ATOM     22  C11 UNL     1      -1.268   2.201   0.811  1.00  0.00     0.164 C   
BRANCH  22  23
ATOM     23  C12 UNL     1       0.200   2.526   0.761  1.00  0.00    -0.002 A   
ATOM     24  C13 UNL     1       0.708   3.660   1.438  1.00  0.00     0.012 A   
ATOM     25  C17 UNL     1       1.081   1.689   0.055  1.00  0.00     0.045 A   
ATOM     26  C14 UNL     1       2.076   3.953   1.421  1.00  0.00     0.037 A   
ATOM     27  C16 UNL     1       2.424   2.004   0.059  1.00  0.00     0.109 A   
ATOM     28  C15 UNL     1       2.907   3.103   0.725  1.00  0.00     0.108 A   
ATOM     29  O2  UNL     1       3.407   1.301  -0.562  1.00  0.00    -0.316 OA  
ATOM     30  O3  UNL     1       4.254   3.231   0.606  1.00  0.00    -0.316 OA  
ATOM     31  C18 UNL     1       4.564   2.102  -0.238  1.00  0.00     0.337 C   
ENDBRANCH  22  23
ENDBRANCH  19  22
ENDBRANCH  18  19
BRANCH  18  32
ATOM     32  C19 UNL     1      -1.485   0.233   4.134  1.00  0.00     0.037 C   
ATOM     33  C20 UNL     1      -2.979   0.204   4.476  1.00  0.00     0.014 C   
ATOM     34  C21 UNL     1      -0.799  -1.014   4.706  1.00  0.00     0.014 C   
ENDBRANCH  18  32
ENDBRANCH   3  18
TORSDOF 9
