REMARK SMILES CN(C)c1ccc(CCn2cc([C@@H]([NH2+]Cc3ccc4c(c3)OCO4)C(C)(C)C)nn2)cn1
REMARK SMILES IDX 10 1 11 2 12 3 29 4 30 5 9 7 8 8 7 9 4 10 5 11 32 12 6 13
REMARK SMILES IDX 31 14 2 15 1 16 3 17 13 18 14 19 15 22 16 23 17 24 21 25
REMARK SMILES IDX 18 26 20 27 19 28 22 29 24 30 23 31 25 32 26 33 27 34 28 35
REMARK H PARENT 11 6 14 20 14 21
ROOT
ATOM     1   N2  UNL     1       1.022   3.744   0.867  1.00  0.00    -0.212 N   
ATOM     2   C9  UNL     1       0.320   2.693   1.398  1.00  0.00     0.045 A   
ATOM     3   C10 UNL     1      -0.526   2.302   0.382  1.00  0.00     0.127 A   
ATOM     4   N4  UNL     1      -0.406   3.205  -0.650  1.00  0.00    -0.132 NA  
ATOM     5   N5  UNL     1       0.537   4.080  -0.340  1.00  0.00    -0.076 NA  
ATOM     6   H13 UNL     1       0.585   2.267   2.355  1.00  0.00     0.083 HD  
ENDROOT
BRANCH   1   7
ATOM     7   C8  UNL     1       2.328   4.212   1.297  1.00  0.00     0.139 C   
BRANCH   7   8
ATOM     8   C7  UNL     1       3.487   3.553   0.518  1.00  0.00     0.058 C   
BRANCH   8   9
ATOM     9   C6  UNL     1       3.336   2.053   0.423  1.00  0.00    -0.028 A   
ATOM     10  C3  UNL     1       2.575  -0.630   0.305  1.00  0.00     0.119 A   
ATOM     11  C4  UNL     1       3.251  -0.138   1.421  1.00  0.00     0.045 A   
ATOM     12  N6  UNL     1       2.276   0.201  -0.724  1.00  0.00    -0.241 NA  
ATOM     13  C5  UNL     1       3.628   1.208   1.485  1.00  0.00     0.009 A   
ATOM     14  C24 UNL     1       2.718   1.483  -0.679  1.00  0.00     0.117 A   
BRANCH  10  15
ATOM     15  N1  UNL     1       2.040  -1.923   0.221  1.00  0.00    -0.322 N   
ATOM     16  C1  UNL     1       2.281  -2.528  -1.099  1.00  0.00     0.131 C   
ATOM     17  C2  UNL     1       2.298  -2.843   1.332  1.00  0.00     0.131 C   
ENDBRANCH  10  15
ENDBRANCH   8   9
ENDBRANCH   7   8
ENDBRANCH   1   7
BRANCH   3  18
ATOM     18  C11 UNL     1      -1.357   1.066   0.163  1.00  0.00     0.120 C   
BRANCH  18  19
ATOM     19  N3  UNL     1      -0.573   0.089  -0.684  1.00  0.00     0.250 N   
ATOM     20  H15 UNL     1      -0.710  -0.885  -0.405  1.00  0.00     0.199 HD  
ATOM     21  H16 UNL     1       0.442   0.234  -0.515  1.00  0.00     0.199 HD  
BRANCH  19  22
ATOM     22  C12 UNL     1      -0.749   0.205  -2.157  1.00  0.00     0.164 C   
BRANCH  22  23
ATOM     23  C13 UNL     1      -1.971  -0.531  -2.635  1.00  0.00    -0.002 A   
ATOM     24  C14 UNL     1      -1.938  -1.940  -2.784  1.00  0.00     0.012 A   
ATOM     25  C18 UNL     1      -3.166   0.163  -2.891  1.00  0.00     0.045 A   
ATOM     26  C15 UNL     1      -3.077  -2.647  -3.181  1.00  0.00     0.037 A   
ATOM     27  C17 UNL     1      -4.272  -0.566  -3.274  1.00  0.00     0.109 A   
ATOM     28  C16 UNL     1      -4.229  -1.931  -3.416  1.00  0.00     0.108 A   
ATOM     29  O1  UNL     1      -5.502  -0.054  -3.543  1.00  0.00    -0.316 OA  
ATOM     30  O2  UNL     1      -5.425  -2.450  -3.798  1.00  0.00    -0.316 OA  
ATOM     31  C19 UNL     1      -6.225  -1.253  -3.902  1.00  0.00     0.337 C   
ENDBRANCH  22  23
ENDBRANCH  19  22
ENDBRANCH  18  19
BRANCH  18  32
ATOM     32  C20 UNL     1      -1.958   0.353   1.425  1.00  0.00     0.010 C   
ATOM     33  C21 UNL     1      -3.035  -0.667   0.972  1.00  0.00     0.017 C   
ATOM     34  C22 UNL     1      -2.677   1.375   2.334  1.00  0.00     0.017 C   
ATOM     35  C23 UNL     1      -0.920  -0.420   2.262  1.00  0.00     0.017 C   
ENDBRANCH  18  32
ENDBRANCH   3  18
TORSDOF 9
