REMARK SMILES COc1ccccc1Cn1cc([C@@H]([NH2+]Cc2ccc3c(c2)OCO3)C(C)C)nn1
REMARK SMILES IDX 10 1 11 2 12 3 28 4 29 5 9 7 8 8 3 9 4 10 5 11 7 12 6 13
REMARK SMILES IDX 2 14 1 15 13 16 14 17 15 20 16 21 17 22 21 23 18 24 20 25
REMARK SMILES IDX 19 26 22 27 24 28 23 29 25 30 26 31 27 32
REMARK H PARENT 11 6 14 18 14 19
ROOT
ATOM     1   N1  UNL     1      -0.879  -2.352  -0.127  1.00  0.00    -0.208 N   
ATOM     2   C9  UNL     1       0.346  -2.024   0.387  1.00  0.00     0.046 A   
ATOM     3   C10 UNL     1       0.639  -0.812  -0.196  1.00  0.00     0.127 A   
ATOM     4   N3  UNL     1      -0.372  -0.472  -1.060  1.00  0.00    -0.132 NA  
ATOM     5   N4  UNL     1      -1.282  -1.430  -1.026  1.00  0.00    -0.076 NA  
ATOM     6   H10 UNL     1       0.851  -2.648   1.112  1.00  0.00     0.083 HD  
ENDROOT
BRANCH   1   7
ATOM     7   C8  UNL     1      -1.694  -3.521   0.155  1.00  0.00     0.172 C   
BRANCH   7   8
ATOM     8   C7  UNL     1      -2.408  -3.376   1.476  1.00  0.00     0.002 A   
ATOM     9   C2  UNL     1      -1.862  -3.891   2.667  1.00  0.00     0.079 A   
ATOM     10  C3  UNL     1      -2.549  -3.717   3.873  1.00  0.00     0.034 A   
ATOM     11  C4  UNL     1      -3.771  -3.041   3.900  1.00  0.00     0.003 A   
ATOM     12  C6  UNL     1      -3.635  -2.690   1.521  1.00  0.00     0.008 A   
ATOM     13  C5  UNL     1      -4.313  -2.528   2.726  1.00  0.00     0.001 A   
BRANCH   9  14
ATOM     14  O1  UNL     1      -0.650  -4.522   2.548  1.00  0.00    -0.349 OA  
ATOM     15  C1  UNL     1      -0.216  -5.295   3.664  1.00  0.00     0.203 C   
ENDBRANCH   9  14
ENDBRANCH   7   8
ENDBRANCH   1   7
BRANCH   3  16
ATOM     16  C11 UNL     1       1.815   0.100  -0.042  1.00  0.00     0.117 C   
BRANCH  16  17
ATOM     17  N2  UNL     1       1.905   1.036  -1.217  1.00  0.00     0.249 N   
ATOM     18  H12 UNL     1       0.942   1.349  -1.416  1.00  0.00     0.199 HD  
ATOM     19  H13 UNL     1       2.442   1.881  -1.004  1.00  0.00     0.199 HD  
BRANCH  17  20
ATOM     20  C12 UNL     1       2.431   0.431  -2.472  1.00  0.00     0.164 C   
BRANCH  20  21
ATOM     21  C13 UNL     1       2.343   1.416  -3.603  1.00  0.00    -0.002 A   
ATOM     22  C14 UNL     1       1.147   1.529  -4.351  1.00  0.00     0.012 A   
ATOM     23  C18 UNL     1       3.421   2.271  -3.886  1.00  0.00     0.045 A   
ATOM     24  C15 UNL     1       1.028   2.472  -5.377  1.00  0.00     0.037 A   
ATOM     25  C17 UNL     1       3.271   3.189  -4.904  1.00  0.00     0.109 A   
ATOM     26  C16 UNL     1       2.108   3.288  -5.629  1.00  0.00     0.108 A   
ATOM     27  O2  UNL     1       4.210   4.086  -5.304  1.00  0.00    -0.316 OA  
ATOM     28  O3  UNL     1       2.171   4.257  -6.578  1.00  0.00    -0.316 OA  
ATOM     29  C19 UNL     1       3.515   4.747  -6.386  1.00  0.00     0.337 C   
ENDBRANCH  20  21
ENDBRANCH  17  20
ENDBRANCH  16  17
BRANCH  16  30
ATOM     30  C20 UNL     1       1.759   0.906   1.283  1.00  0.00     0.037 C   
ATOM     31  C21 UNL     1       3.095   1.596   1.585  1.00  0.00     0.014 C   
ATOM     32  C22 UNL     1       0.622   1.933   1.337  1.00  0.00     0.014 C   
ENDBRANCH  16  30
ENDBRANCH   3  16
TORSDOF 8
