REMARK SMILES Cc1ccc(N([O-])[O-])c(Cn2cc([C@@H]([NH2+]Cc3ccc4c(c3)OCO4)C(C)C)nn2)c1
REMARK SMILES IDX 11 1 12 2 13 3 29 4 30 5 10 7 9 8 2 9 3 10 31 11 4 12 5 13
REMARK SMILES IDX 1 14 6 15 7 16 8 17 14 18 15 19 16 22 17 23 18 24 22 25
REMARK SMILES IDX 19 26 21 27 20 28 23 29 25 30 24 31 26 32 27 33 28 34
REMARK H PARENT 12 6 15 20 15 21
ROOT
ATOM     1   N2  UNL     1       0.628  -1.504  -1.259  1.00  0.00    -0.208 N   
ATOM     2   C8  UNL     1       1.204  -0.308  -0.932  1.00  0.00     0.046 A   
ATOM     3   C9  UNL     1       1.632  -0.486   0.365  1.00  0.00     0.127 A   
ATOM     4   N4  UNL     1       1.346  -1.768   0.759  1.00  0.00    -0.132 NA  
ATOM     5   N5  UNL     1       0.747  -2.385  -0.247  1.00  0.00    -0.076 NA  
ATOM     6   H8  UNL     1       1.202   0.541  -1.603  1.00  0.00     0.083 HD  
ENDROOT
BRANCH   1   7
ATOM     7   C7  UNL     1      -0.119  -1.839  -2.464  1.00  0.00     0.171 C   
BRANCH   7   8
ATOM     8   C6  UNL     1      -1.508  -2.376  -2.179  1.00  0.00     0.000 A   
ATOM     9   C2  UNL     1      -3.124  -4.198  -2.479  1.00  0.00    -0.051 A   
ATOM     10  C3  UNL     1      -4.067  -3.500  -1.717  1.00  0.00     0.005 A   
ATOM     11  C22 UNL     1      -1.862  -3.628  -2.716  1.00  0.00     0.011 A   
ATOM     12  C4  UNL     1      -3.752  -2.255  -1.177  1.00  0.00     0.032 A   
ATOM     13  C5  UNL     1      -2.486  -1.704  -1.416  1.00  0.00     0.122 A   
ATOM     14  C1  UNL     1      -3.483  -5.525  -3.088  1.00  0.00     0.044 C   
BRANCH  13  15
ATOM     15  N1  UNL     1      -2.219  -0.395  -0.838  1.00  0.00     0.092 N   
ATOM     16  O1  UNL     1      -2.386  -0.259   0.382  1.00  0.00    -0.138 OA  
ATOM     17  O2  UNL     1      -1.797   0.488  -1.597  1.00  0.00    -0.138 OA  
ENDBRANCH  13  15
ENDBRANCH   7   8
ENDBRANCH   1   7
BRANCH   3  18
ATOM     18  C10 UNL     1       2.216   0.475   1.348  1.00  0.00     0.117 C   
BRANCH  18  19
ATOM     19  N3  UNL     1       1.623   0.228   2.720  1.00  0.00     0.249 N   
ATOM     20  H10 UNL     1       1.666  -0.789   2.874  1.00  0.00     0.199 HD  
ATOM     21  H11 UNL     1       2.195   0.673   3.442  1.00  0.00     0.199 HD  
BRANCH  19  22
ATOM     22  C11 UNL     1       0.196   0.636   2.900  1.00  0.00     0.164 C   
BRANCH  22  23
ATOM     23  C12 UNL     1       0.010   2.128   2.879  1.00  0.00    -0.002 A   
ATOM     24  C13 UNL     1      -0.638   2.751   1.786  1.00  0.00     0.012 A   
ATOM     25  C17 UNL     1       0.500   2.919   3.933  1.00  0.00     0.045 A   
ATOM     26  C14 UNL     1      -0.790   4.141   1.735  1.00  0.00     0.037 A   
ATOM     27  C16 UNL     1       0.335   4.286   3.851  1.00  0.00     0.109 A   
ATOM     28  C15 UNL     1      -0.290   4.880   2.783  1.00  0.00     0.108 A   
ATOM     29  O3  UNL     1       0.756   5.189   4.775  1.00  0.00    -0.316 OA  
ATOM     30  O4  UNL     1      -0.343   6.232   2.900  1.00  0.00    -0.316 OA  
ATOM     31  C18 UNL     1       0.293   6.424   4.182  1.00  0.00     0.337 C   
ENDBRANCH  22  23
ENDBRANCH  19  22
ENDBRANCH  18  19
BRANCH  18  32
ATOM     32  C19 UNL     1       3.762   0.411   1.461  1.00  0.00     0.037 C   
ATOM     33  C20 UNL     1       4.311  -0.950   1.903  1.00  0.00     0.014 C   
ATOM     34  C21 UNL     1       4.437   0.840   0.153  1.00  0.00     0.014 C   
ENDBRANCH  18  32
ENDBRANCH   3  18
TORSDOF 8
