REMARK SMILES COc1cc(F)ccc1-n1cc([C@H](CC(C)C)[NH2+]Cc2ccc3c(c2)OCO3)nn1
REMARK SMILES IDX 10 1 11 2 12 3 29 4 30 5 9 6 3 7 4 8 5 9 8 10 7 11 6 12 2 13
REMARK SMILES IDX 1 14 13 15 14 16 15 17 16 18 17 19 18 20 19 23 20 24 21 25
REMARK SMILES IDX 25 26 22 27 24 28 23 29 26 30 28 31 27 32
REMARK H PARENT 18 21 18 22
ROOT
ATOM     1   N1  UNL     1       1.801   0.844  -0.603  1.00  0.00    -0.178 N   
ATOM     2   C8  UNL     1       0.840  -0.148  -0.662  1.00  0.00     0.135 A   
ATOM     3   C9  UNL     1      -0.347   0.505  -0.904  1.00  0.00     0.127 A   
ATOM     4   N3  UNL     1      -0.103   1.836  -1.058  1.00  0.00    -0.131 NA  
ATOM     5   N4  UNL     1       1.194   2.032  -0.894  1.00  0.00    -0.071 NA  
ENDROOT
BRANCH   1   6
ATOM     6   C7  UNL     1       3.186   0.797  -0.261  1.00  0.00     0.088 A   
ATOM     7   C2  UNL     1       3.865  -0.395   0.073  1.00  0.00     0.101 A   
ATOM     8   C3  UNL     1       5.218  -0.323   0.440  1.00  0.00     0.074 A   
ATOM     9   C4  UNL     1       5.885   0.897   0.455  1.00  0.00     0.125 A   
ATOM     10  C6  UNL     1       3.890   2.022  -0.244  1.00  0.00     0.032 A   
ATOM     11  C5  UNL     1       5.237   2.070   0.111  1.00  0.00     0.041 A   
ATOM     12  F1  UNL     1       7.175   0.936   0.810  1.00  0.00    -0.207 F   
BRANCH   7  13
ATOM     13  O1  UNL     1       3.178  -1.578   0.047  1.00  0.00    -0.347 OA  
ATOM     14  C1  UNL     1       3.928  -2.787   0.119  1.00  0.00     0.203 C   
ENDBRANCH   7  13
ENDBRANCH   1   6
BRANCH   3  15
ATOM     15  C10 UNL     1      -1.757   0.019  -0.895  1.00  0.00     0.114 C   
BRANCH  15  16
ATOM     16  C11 UNL     1      -2.394   0.022  -2.296  1.00  0.00     0.064 C   
BRANCH  16  17
ATOM     17  C12 UNL     1      -1.714  -0.905  -3.326  1.00  0.00    -0.012 C   
ATOM     18  C13 UNL     1      -2.403  -0.757  -4.686  1.00  0.00     0.007 C   
ATOM     19  C14 UNL     1      -1.734  -2.372  -2.895  1.00  0.00     0.007 C   
ENDBRANCH  16  17
ENDBRANCH  15  16
BRANCH  15  20
ATOM     20  N2  UNL     1      -2.586   0.946  -0.018  1.00  0.00     0.249 N   
ATOM     21  H18 UNL     1      -2.142   1.875  -0.089  1.00  0.00     0.199 HD  
ATOM     22  H19 UNL     1      -3.528   1.058  -0.406  1.00  0.00     0.199 HD  
BRANCH  20  23
ATOM     23  C15 UNL     1      -2.698   0.582   1.426  1.00  0.00     0.164 C   
BRANCH  23  24
ATOM     24  C16 UNL     1      -1.381   0.452   2.141  1.00  0.00    -0.002 A   
ATOM     25  C17 UNL     1      -0.903  -0.823   2.528  1.00  0.00     0.012 A   
ATOM     26  C21 UNL     1      -0.590   1.588   2.386  1.00  0.00     0.045 A   
ATOM     27  C18 UNL     1       0.356  -0.972   3.120  1.00  0.00     0.037 A   
ATOM     28  C20 UNL     1       0.648   1.406   2.969  1.00  0.00     0.109 A   
ATOM     29  C19 UNL     1       1.111   0.162   3.318  1.00  0.00     0.108 A   
ATOM     30  O2  UNL     1       1.543   2.390   3.247  1.00  0.00    -0.316 OA  
ATOM     31  O3  UNL     1       2.357   0.204   3.856  1.00  0.00    -0.316 OA  
ATOM     32  C22 UNL     1       2.616   1.626   3.841  1.00  0.00     0.337 C   
ENDBRANCH  23  24
ENDBRANCH  20  23
ENDBRANCH  15  20
ENDBRANCH   3  15
TORSDOF 8
