REMARK SMILES NCc1cccc(Cn2cc([C@@H]([NH2+]Cc3ccc4c(c3)OCO4)C3CCCCC3)nn2)c1
REMARK SMILES IDX 9 1 10 2 11 3 30 4 31 5 8 7 7 8 3 9 4 10 32 11 5 12 6 13
REMARK SMILES IDX 2 14 1 15 12 18 13 19 14 22 15 23 16 24 20 25 17 26 19 27
REMARK SMILES IDX 18 28 21 29 23 30 22 31 24 32 25 33 29 34 26 35 28 36 27 37
REMARK H PARENT 10 6 1 16 1 17 13 20 13 21
ROOT
ATOM     1   N2  UNL     1      -0.818   1.989   0.840  1.00  0.00    -0.208 N   
ATOM     2   C8  UNL     1       0.346   1.485   0.319  1.00  0.00     0.046 A   
ATOM     3   C9  UNL     1      -0.068   0.721  -0.754  1.00  0.00     0.127 A   
ATOM     4   N4  UNL     1      -1.435   0.777  -0.843  1.00  0.00    -0.132 NA  
ATOM     5   N5  UNL     1      -1.879   1.558   0.128  1.00  0.00    -0.076 NA  
ATOM     6   H10 UNL     1       1.315   1.700   0.743  1.00  0.00     0.083 HD  
ENDROOT
BRANCH   1   7
ATOM     7   C7  UNL     1      -1.005   2.975   1.896  1.00  0.00     0.169 C   
BRANCH   7   8
ATOM     8   C6  UNL     1      -0.086   2.759   3.070  1.00  0.00    -0.028 A   
ATOM     9   C2  UNL     1       0.422   1.631   5.175  1.00  0.00    -0.034 A   
ATOM     10  C3  UNL     1       1.626   2.335   5.248  1.00  0.00     0.005 A   
ATOM     11  C25 UNL     1      -0.421   1.834   4.071  1.00  0.00     0.010 A   
ATOM     12  C4  UNL     1       1.956   3.274   4.269  1.00  0.00     0.001 A   
ATOM     13  C5  UNL     1       1.101   3.494   3.190  1.00  0.00     0.005 A   
BRANCH   9  14
ATOM     14  C1  UNL     1       0.040   0.648   6.254  1.00  0.00     0.113 C   
BRANCH  14  15
ATOM     15  N1  UNL     1       0.528  -0.690   5.936  1.00  0.00    -0.327 NA  
ATOM     16  H1  UNL     1       1.543  -0.669   5.917  1.00  0.00     0.119 HD  
ATOM     17  H2  UNL     1       0.214  -0.955   5.007  1.00  0.00     0.119 HD  
ENDBRANCH  14  15
ENDBRANCH   9  14
ENDBRANCH   7   8
ENDBRANCH   1   7
BRANCH   3  18
ATOM     18  C10 UNL     1       0.698  -0.094  -1.746  1.00  0.00     0.117 C   
BRANCH  18  19
ATOM     19  N3  UNL     1      -0.190  -1.179  -2.310  1.00  0.00     0.249 N   
ATOM     20  H12 UNL     1      -1.115  -0.754  -2.472  1.00  0.00     0.199 HD  
ATOM     21  H13 UNL     1       0.141  -1.501  -3.223  1.00  0.00     0.199 HD  
BRANCH  19  22
ATOM     22  C11 UNL     1      -0.403  -2.355  -1.423  1.00  0.00     0.164 C   
BRANCH  22  23
ATOM     23  C12 UNL     1      -1.286  -3.367  -2.098  1.00  0.00    -0.002 A   
ATOM     24  C13 UNL     1      -2.688  -3.333  -1.895  1.00  0.00     0.012 A   
ATOM     25  C17 UNL     1      -0.736  -4.320  -2.972  1.00  0.00     0.045 A   
ATOM     26  C14 UNL     1      -3.532  -4.238  -2.548  1.00  0.00     0.037 A   
ATOM     27  C16 UNL     1      -1.596  -5.202  -3.595  1.00  0.00     0.109 A   
ATOM     28  C15 UNL     1      -2.953  -5.160  -3.394  1.00  0.00     0.108 A   
ATOM     29  O1  UNL     1      -1.226  -6.183  -4.464  1.00  0.00    -0.316 OA  
ATOM     30  O2  UNL     1      -3.612  -6.097  -4.123  1.00  0.00    -0.316 OA  
ATOM     31  C18 UNL     1      -2.513  -6.754  -4.792  1.00  0.00     0.337 C   
ENDBRANCH  22  23
ENDBRANCH  19  22
ENDBRANCH  18  19
BRANCH  18  32
ATOM     32  C19 UNL     1       1.274   0.720  -2.936  1.00  0.00     0.043 C   
ATOM     33  C20 UNL     1       0.216   1.515  -3.726  1.00  0.00     0.010 C   
ATOM     34  C24 UNL     1       2.411   1.657  -2.490  1.00  0.00     0.010 C   
ATOM     35  C21 UNL     1       0.840   2.248  -4.912  1.00  0.00     0.001 C   
ATOM     36  C23 UNL     1       3.032   2.395  -3.675  1.00  0.00     0.001 C   
ATOM     37  C22 UNL     1       1.990   3.152  -4.484  1.00  0.00     0.000 C   
ENDBRANCH  18  32
ENDBRANCH   3  18
TORSDOF 9
