REMARK SMILES O[C@H](Cn1cc([C@@H]([NH2+]Cc2ccc3c(c2)OCO3)C2CCCCC2)nn1)c1ccc(F)cc1F
REMARK SMILES IDX 4 1 5 2 6 3 25 4 26 5 3 7 2 8 1 9 27 11 28 12 33 13 29 14
REMARK SMILES IDX 32 15 30 16 34 17 31 18 7 19 8 20 9 23 10 24 11 25 15 26
REMARK SMILES IDX 12 27 14 28 13 29 16 30 18 31 17 32 19 33 20 34 24 35 21 36
REMARK SMILES IDX 23 37 22 38
REMARK H PARENT 5 6 1 10 8 21 8 22
ROOT
ATOM     1   N1  UNL     1       0.898   0.450  -0.243  1.00  0.00    -0.209 N   
ATOM     2   C3  UNL     1       0.391  -0.453  -1.133  1.00  0.00     0.045 A   
ATOM     3   C4  UNL     1      -0.971  -0.362  -0.956  1.00  0.00     0.127 A   
ATOM     4   N3  UNL     1      -1.239   0.575   0.011  1.00  0.00    -0.132 NA  
ATOM     5   N4  UNL     1      -0.086   1.064   0.440  1.00  0.00    -0.076 NA  
ATOM     6   H5  UNL     1       1.026  -1.073  -1.751  1.00  0.00     0.083 HD  
ENDROOT
BRANCH   1   7
ATOM     7   C2  UNL     1       2.291   0.757   0.030  1.00  0.00     0.170 C   
BRANCH   7   8
ATOM     8   C1  UNL     1       2.903  -0.279   0.975  1.00  0.00     0.167 C   
BRANCH   8   9
ATOM     9   O1  UNL     1       3.115  -1.504   0.259  1.00  0.00    -0.387 OA  
ATOM     10  H1  UNL     1       3.609  -2.104   0.848  1.00  0.00     0.211 HD  
ENDBRANCH   8   9
BRANCH   8  11
ATOM     11  C20 UNL     1       4.221   0.189   1.549  1.00  0.00     0.018 A   
ATOM     12  C21 UNL     1       5.394   0.223   0.776  1.00  0.00     0.012 A   
ATOM     13  C25 UNL     1       4.285   0.625   2.879  1.00  0.00     0.131 A   
ATOM     14  C22 UNL     1       6.593   0.669   1.339  1.00  0.00     0.040 A   
ATOM     15  C24 UNL     1       5.474   1.071   3.446  1.00  0.00     0.078 A   
ATOM     16  C23 UNL     1       6.622   1.083   2.668  1.00  0.00     0.126 A   
ATOM     17  F2  UNL     1       3.177   0.621   3.630  1.00  0.00    -0.207 F   
ATOM     18  F1  UNL     1       7.774   1.512   3.199  1.00  0.00    -0.207 F   
ENDBRANCH   8  11
ENDBRANCH   7   8
ENDBRANCH   1   7
BRANCH   3  19
ATOM     19  C5  UNL     1      -2.102  -1.141  -1.544  1.00  0.00     0.117 C   
BRANCH  19  20
ATOM     20  N2  UNL     1      -3.087  -1.436  -0.421  1.00  0.00     0.249 N   
ATOM     21  H7  UNL     1      -4.054  -1.272  -0.713  1.00  0.00     0.199 HD  
ATOM     22  H8  UNL     1      -2.906  -0.716   0.297  1.00  0.00     0.199 HD  
BRANCH  20  23
ATOM     23  C6  UNL     1      -2.989  -2.777   0.220  1.00  0.00     0.164 C   
BRANCH  23  24
ATOM     24  C7  UNL     1      -1.652  -3.072   0.846  1.00  0.00    -0.002 A   
ATOM     25  C8  UNL     1      -0.790  -4.035   0.265  1.00  0.00     0.012 A   
ATOM     26  C12 UNL     1      -1.239  -2.385   2.002  1.00  0.00     0.045 A   
ATOM     27  C9  UNL     1       0.468  -4.304   0.819  1.00  0.00     0.037 A   
ATOM     28  C11 UNL     1       0.005  -2.679   2.526  1.00  0.00     0.109 A   
ATOM     29  C10 UNL     1       0.835  -3.609   1.950  1.00  0.00     0.108 A   
ATOM     30  O2  UNL     1       0.555  -2.101   3.627  1.00  0.00    -0.316 OA  
ATOM     31  O3  UNL     1       2.015  -3.730   2.615  1.00  0.00    -0.316 OA  
ATOM     32  C13 UNL     1       1.791  -2.842   3.736  1.00  0.00     0.337 C   
ENDBRANCH  23  24
ENDBRANCH  20  23
ENDBRANCH  19  20
BRANCH  19  33
ATOM     33  C14 UNL     1      -2.846  -0.381  -2.680  1.00  0.00     0.043 C   
ATOM     34  C15 UNL     1      -1.872   0.151  -3.757  1.00  0.00     0.010 C   
ATOM     35  C19 UNL     1      -3.902  -1.283  -3.359  1.00  0.00     0.010 C   
ATOM     36  C16 UNL     1      -2.603   0.872  -4.886  1.00  0.00     0.001 C   
ATOM     37  C18 UNL     1      -4.628  -0.568  -4.497  1.00  0.00     0.001 C   
ATOM     38  C17 UNL     1      -3.656  -0.018  -5.533  1.00  0.00     0.000 C   
ENDBRANCH  19  33
ENDBRANCH   3  19
TORSDOF 9
