REMARK SMILES COc1cc(Cn2cc([C@@H]([NH2+]Cc3ccc4c(c3)OCO4)C(C)(C)C)nn2)cc(C)n1
REMARK SMILES IDX 7 1 8 2 9 3 26 4 27 5 6 7 5 8 3 9 4 10 31 11 29 12 28 13
REMARK SMILES IDX 30 14 2 15 1 16 10 17 11 18 12 21 13 22 14 23 18 24 15 25
REMARK SMILES IDX 17 26 16 27 19 28 21 29 20 30 22 31 23 32 24 33 25 34
REMARK H PARENT 8 6 11 19 11 20
ROOT
ATOM     1   N1  UNL     1       0.837  -2.216   2.119  1.00  0.00    -0.208 N   
ATOM     2   C6  UNL     1       0.406  -0.923   2.013  1.00  0.00     0.046 A   
ATOM     3   C7  UNL     1      -0.806  -1.028   1.367  1.00  0.00     0.127 A   
ATOM     4   N3  UNL     1      -1.086  -2.352   1.149  1.00  0.00    -0.132 NA  
ATOM     5   N4  UNL     1      -0.073  -3.068   1.608  1.00  0.00    -0.076 NA  
ATOM     6   H7  UNL     1       1.006  -0.082   2.333  1.00  0.00     0.083 HD  
ENDROOT
BRANCH   1   7
ATOM     7   C5  UNL     1       2.143  -2.688   2.549  1.00  0.00     0.169 C   
BRANCH   7   8
ATOM     8   C4  UNL     1       3.139  -2.517   1.431  1.00  0.00    -0.023 A   
ATOM     9   C2  UNL     1       4.730  -1.199   0.224  1.00  0.00     0.167 A   
ATOM     10  C3  UNL     1       3.898  -1.348   1.320  1.00  0.00     0.060 A   
ATOM     11  N5  UNL     1       4.847  -2.117  -0.756  1.00  0.00    -0.230 NA  
ATOM     12  C22 UNL     1       4.137  -3.260  -0.631  1.00  0.00     0.041 A   
ATOM     13  C21 UNL     1       3.272  -3.492   0.436  1.00  0.00     0.029 A   
ATOM     14  C23 UNL     1       4.300  -4.292  -1.708  1.00  0.00     0.067 C   
BRANCH   9  15
ATOM     15  O1  UNL     1       5.418  -0.006   0.141  1.00  0.00    -0.333 OA  
ATOM     16  C1  UNL     1       6.356   0.022  -0.931  1.00  0.00     0.205 C   
ENDBRANCH   9  15
ENDBRANCH   7   8
ENDBRANCH   1   7
BRANCH   3  17
ATOM     17  C8  UNL     1      -1.704   0.032   0.809  1.00  0.00     0.120 C   
BRANCH  17  18
ATOM     18  N2  UNL     1      -2.163  -0.361  -0.584  1.00  0.00     0.250 N   
ATOM     19  H9  UNL     1      -2.670  -1.250  -0.489  1.00  0.00     0.199 HD  
ATOM     20  H10 UNL     1      -2.817   0.330  -0.954  1.00  0.00     0.199 HD  
BRANCH  18  21
ATOM     21  C9  UNL     1      -1.093  -0.595  -1.609  1.00  0.00     0.164 C   
BRANCH  21  22
ATOM     22  C10 UNL     1      -0.151   0.563  -1.786  1.00  0.00    -0.002 A   
ATOM     23  C11 UNL     1       1.220   0.414  -1.462  1.00  0.00     0.012 A   
ATOM     24  C15 UNL     1      -0.619   1.802  -2.257  1.00  0.00     0.045 A   
ATOM     25  C12 UNL     1       2.111   1.485  -1.588  1.00  0.00     0.037 A   
ATOM     26  C14 UNL     1       0.287   2.837  -2.367  1.00  0.00     0.109 A   
ATOM     27  C13 UNL     1       1.612   2.685  -2.041  1.00  0.00     0.108 A   
ATOM     28  O2  UNL     1      -0.002   4.095  -2.793  1.00  0.00    -0.316 OA  
ATOM     29  O3  UNL     1       2.324   3.827  -2.222  1.00  0.00    -0.316 OA  
ATOM     30  C16 UNL     1       1.304   4.713  -2.730  1.00  0.00     0.337 C   
ENDBRANCH  21  22
ENDBRANCH  18  21
ENDBRANCH  17  18
BRANCH  17  31
ATOM     31  C17 UNL     1      -2.939   0.374   1.717  1.00  0.00     0.010 C   
ATOM     32  C18 UNL     1      -2.456   0.807   3.121  1.00  0.00     0.017 C   
ATOM     33  C19 UNL     1      -3.729   1.564   1.125  1.00  0.00     0.017 C   
ATOM     34  C20 UNL     1      -3.911  -0.810   1.886  1.00  0.00     0.017 C   
ENDBRANCH  17  31
ENDBRANCH   3  17
TORSDOF 8
