REMARK SMILES c1nc2ccc(-n3cc([C@@H]([NH2+]Cc4ccc5c(c4)OCO5)C4CCCCC4)nn3)cc2[nH]1
REMARK SMILES IDX 10 1 9 2 7 3 8 4 29 5 28 6 6 7 1 8 2 9 32 10 3 11 31 12 4 13
REMARK SMILES IDX 30 14 5 15 11 17 12 20 13 21 14 22 18 23 15 24 17 25 16 26
REMARK SMILES IDX 19 27 21 28 20 29 22 30 23 31 27 32 24 33 26 34 25 35
REMARK H PARENT 32 16 11 18 11 19
ROOT
ATOM     1   C8  UNL     1      -0.143   0.563  -0.407  1.00  0.00     0.117 C   
ENDROOT
BRANCH   1   2
ATOM     2   C7  UNL     1       0.188  -0.880  -0.199  1.00  0.00     0.127 A   
ATOM     3   N2  UNL     1       0.486  -2.941   0.486  1.00  0.00    -0.181 N   
ATOM     4   C6  UNL     1      -0.102  -1.740   0.837  1.00  0.00     0.135 A   
ATOM     5   N5  UNL     1       1.136  -2.775  -0.696  1.00  0.00    -0.071 NA  
ATOM     6   N4  UNL     1       0.953  -1.536  -1.121  1.00  0.00    -0.131 NA  
BRANCH   3   7
ATOM     7   C5  UNL     1       0.485  -4.178   1.179  1.00  0.00     0.060 A   
ATOM     8   C1  UNL     1       1.339  -8.533   2.128  1.00  0.00     0.186 A   
ATOM     9   N1  UNL     1       0.620  -7.901   3.026  1.00  0.00    -0.240 NA  
ATOM     10  N6  UNL     1       1.676  -7.716   1.086  1.00  0.00    -0.304 N   
ATOM     11  C2  UNL     1       0.484  -6.624   2.547  1.00  0.00     0.086 A   
ATOM     12  C24 UNL     1       1.139  -6.476   1.330  1.00  0.00     0.059 A   
ATOM     13  C3  UNL     1      -0.190  -5.528   3.099  1.00  0.00     0.032 A   
ATOM     14  C23 UNL     1       1.166  -5.276   0.613  1.00  0.00     0.052 A   
ATOM     15  C4  UNL     1      -0.185  -4.307   2.408  1.00  0.00     0.028 A   
ATOM     16  H27 UNL     1       2.223  -7.984   0.280  1.00  0.00     0.154 HD  
ENDBRANCH   3   7
ENDBRANCH   1   2
BRANCH   1  17
ATOM     17  N3  UNL     1       0.973   1.252  -1.166  1.00  0.00     0.249 N   
ATOM     18  H6  UNL     1       1.185   0.655  -1.978  1.00  0.00     0.199 HD  
ATOM     19  H7  UNL     1       0.651   2.155  -1.527  1.00  0.00     0.199 HD  
BRANCH  17  20
ATOM     20  C9  UNL     1       2.256   1.452  -0.427  1.00  0.00     0.164 C   
BRANCH  20  21
ATOM     21  C10 UNL     1       2.134   2.442   0.697  1.00  0.00    -0.002 A   
ATOM     22  C11 UNL     1       2.025   3.828   0.425  1.00  0.00     0.012 A   
ATOM     23  C15 UNL     1       2.098   1.994   2.029  1.00  0.00     0.045 A   
ATOM     24  C12 UNL     1       1.875   4.754   1.463  1.00  0.00     0.037 A   
ATOM     25  C14 UNL     1       1.947   2.934   3.028  1.00  0.00     0.109 A   
ATOM     26  C13 UNL     1       1.837   4.274   2.754  1.00  0.00     0.108 A   
ATOM     27  O1  UNL     1       1.882   2.668   4.359  1.00  0.00    -0.316 OA  
ATOM     28  O2  UNL     1       1.695   5.023   3.878  1.00  0.00    -0.316 OA  
ATOM     29  C16 UNL     1       1.759   4.004   4.899  1.00  0.00     0.337 C   
ENDBRANCH  20  21
ENDBRANCH  17  20
ENDBRANCH   1  17
BRANCH   1  30
ATOM     30  C17 UNL     1      -1.473   0.809  -1.172  1.00  0.00     0.043 C   
ATOM     31  C18 UNL     1      -1.518   0.193  -2.584  1.00  0.00     0.010 C   
ATOM     32  C22 UNL     1      -2.694   0.348  -0.352  1.00  0.00     0.010 C   
ATOM     33  C19 UNL     1      -2.836   0.503  -3.293  1.00  0.00     0.001 C   
ATOM     34  C21 UNL     1      -4.006   0.666  -1.066  1.00  0.00     0.001 C   
ATOM     35  C20 UNL     1      -4.041   0.065  -2.467  1.00  0.00     0.000 C   
ENDBRANCH   1  30
TORSDOF 6
