REMARK SMILES [O-]N([O-])c1ccc(Cn2cc([C@@H]([NH2+]Cc3ccc4c(c3)OCO4)C3CCCC3)nn2)c(F)c1
REMARK SMILES IDX 9 1 10 2 11 3 29 4 30 5 8 7 7 8 4 9 5 10 33 11 6 12 31 13
REMARK SMILES IDX 32 14 2 15 1 16 3 17 12 18 13 19 14 22 15 23 16 24 20 25
REMARK SMILES IDX 17 26 19 27 18 28 21 29 23 30 22 31 24 32 25 33 28 34 26 35
REMARK SMILES IDX 27 36
REMARK H PARENT 10 6 13 20 13 21
ROOT
ATOM     1   N2  UNL     1       1.503   0.506  -2.738  1.00  0.00    -0.208 N   
ATOM     2   C6  UNL     1       0.951   0.965  -1.574  1.00  0.00     0.046 A   
ATOM     3   C7  UNL     1       1.476   0.136  -0.608  1.00  0.00     0.127 A   
ATOM     4   N4  UNL     1       2.307  -0.780  -1.204  1.00  0.00    -0.132 NA  
ATOM     5   N5  UNL     1       2.312  -0.546  -2.506  1.00  0.00    -0.076 NA  
ATOM     6   H5  UNL     1       0.252   1.790  -1.549  1.00  0.00     0.083 HD  
ENDROOT
BRANCH   1   7
ATOM     7   C5  UNL     1       1.308   1.006  -4.087  1.00  0.00     0.172 C   
BRANCH   7   8
ATOM     8   C4  UNL     1       0.044   0.452  -4.687  1.00  0.00     0.007 A   
ATOM     9   C1  UNL     1      -2.345  -0.572  -5.724  1.00  0.00     0.121 A   
ATOM     10  C2  UNL     1      -1.144  -1.268  -5.924  1.00  0.00     0.032 A   
ATOM     11  C23 UNL     1      -2.363   0.632  -5.015  1.00  0.00     0.070 A   
ATOM     12  C3  UNL     1       0.048  -0.755  -5.403  1.00  0.00     0.010 A   
ATOM     13  C22 UNL     1      -1.170   1.123  -4.500  1.00  0.00     0.130 A   
ATOM     14  F1  UNL     1      -1.190   2.261  -3.794  1.00  0.00    -0.207 F   
BRANCH   9  15
ATOM     15  N1  UNL     1      -3.603  -1.126  -6.238  1.00  0.00     0.092 N   
ATOM     16  O1  UNL     1      -3.534  -2.099  -7.002  1.00  0.00    -0.138 OA  
ATOM     17  O2  UNL     1      -4.657  -0.589  -5.867  1.00  0.00    -0.138 OA  
ENDBRANCH   9  15
ENDBRANCH   7   8
ENDBRANCH   1   7
BRANCH   3  18
ATOM     18  C8  UNL     1       1.222   0.035   0.863  1.00  0.00     0.117 C   
BRANCH  18  19
ATOM     19  N3  UNL     1       1.228  -1.441   1.232  1.00  0.00     0.249 N   
ATOM     20  H7  UNL     1       1.708  -1.923   0.454  1.00  0.00     0.199 HD  
ATOM     21  H8  UNL     1       1.821  -1.615   2.048  1.00  0.00     0.199 HD  
BRANCH  19  22
ATOM     22  C9  UNL     1      -0.101  -2.077   1.435  1.00  0.00     0.164 C   
BRANCH  22  23
ATOM     23  C10 UNL     1      -0.995  -2.050   0.226  1.00  0.00    -0.002 A   
ATOM     24  C11 UNL     1      -0.644  -2.758  -0.950  1.00  0.00     0.012 A   
ATOM     25  C15 UNL     1      -2.197  -1.322   0.257  1.00  0.00     0.045 A   
ATOM     26  C12 UNL     1      -1.473  -2.740  -2.077  1.00  0.00     0.037 A   
ATOM     27  C14 UNL     1      -2.996  -1.334  -0.868  1.00  0.00     0.109 A   
ATOM     28  C13 UNL     1      -2.646  -2.023  -2.001  1.00  0.00     0.108 A   
ATOM     29  O3  UNL     1      -4.190  -0.697  -0.996  1.00  0.00    -0.316 OA  
ATOM     30  O4  UNL     1      -3.576  -1.909  -2.984  1.00  0.00    -0.316 OA  
ATOM     31  C16 UNL     1      -4.593  -1.130  -2.315  1.00  0.00     0.337 C   
ENDBRANCH  22  23
ENDBRANCH  19  22
ENDBRANCH  18  19
BRANCH  18  32
ATOM     32  C17 UNL     1       2.302   0.751   1.712  1.00  0.00     0.043 C   
ATOM     33  C18 UNL     1       2.405   2.259   1.443  1.00  0.00     0.010 C   
ATOM     34  C21 UNL     1       1.978   0.758   3.215  1.00  0.00     0.010 C   
ATOM     35  C19 UNL     1       1.269   2.881   2.247  1.00  0.00     0.001 C   
ATOM     36  C20 UNL     1       1.015   1.926   3.411  1.00  0.00     0.001 C   
ENDBRANCH  18  32
ENDBRANCH   3  18
TORSDOF 8
