REMARK SMILES CC(C)(C)c1nc(Cn2cc([C@@H]([NH2+]Cc3ccc4c(c3)OCO4)C3CCCCC3)nn2)co1
REMARK SMILES IDX 9 1 10 2 11 3 30 4 31 5 8 7 7 8 5 9 6 10 33 11 32 12 2 13
REMARK SMILES IDX 1 14 3 15 4 16 12 17 13 18 14 21 15 22 16 23 20 24 17 25
REMARK SMILES IDX 19 26 18 27 21 28 23 29 22 30 24 31 25 32 29 33 26 34 28 35
REMARK SMILES IDX 27 36
REMARK H PARENT 10 6 13 19 13 20
ROOT
ATOM     1   N2  UNL     1      -2.194   1.359  -0.699  1.00  0.00    -0.206 N   
ATOM     2   C8  UNL     1      -1.229   1.383   0.273  1.00  0.00     0.046 A   
ATOM     3   C9  UNL     1      -0.053   1.196  -0.418  1.00  0.00     0.127 A   
ATOM     4   N4  UNL     1      -0.335   1.054  -1.754  1.00  0.00    -0.132 NA  
ATOM     5   N5  UNL     1      -1.646   1.141  -1.911  1.00  0.00    -0.076 NA  
ATOM     6   H12 UNL     1      -1.472   1.522   1.318  1.00  0.00     0.083 HD  
ENDROOT
BRANCH   1   7
ATOM     7   C7  UNL     1      -3.626   1.557  -0.554  1.00  0.00     0.192 C   
BRANCH   7   8
ATOM     8   C6  UNL     1      -4.236   0.390   0.123  1.00  0.00     0.086 A   
ATOM     9   C5  UNL     1      -4.880  -0.851   1.731  1.00  0.00     0.153 A   
ATOM     10  N1  UNL     1      -4.229   0.274   1.497  1.00  0.00    -0.229 NA  
ATOM     11  O3  UNL     1      -5.283  -1.504   0.595  1.00  0.00    -0.301 OA  
ATOM     12  C25 UNL     1      -4.873  -0.700  -0.422  1.00  0.00     0.163 A   
BRANCH   9  13
ATOM     13  C2  UNL     1      -5.223  -1.499   3.047  1.00  0.00     0.027 C   
ATOM     14  C1  UNL     1      -4.817  -0.577   4.212  1.00  0.00     0.020 C   
ATOM     15  C3  UNL     1      -4.467  -2.830   3.181  1.00  0.00     0.020 C   
ATOM     16  C4  UNL     1      -6.738  -1.756   3.127  1.00  0.00     0.020 C   
ENDBRANCH   9  13
ENDBRANCH   7   8
ENDBRANCH   1   7
BRANCH   3  17
ATOM     17  C10 UNL     1       1.365   1.079   0.053  1.00  0.00     0.117 C   
BRANCH  17  18
ATOM     18  N3  UNL     1       2.062   0.012  -0.758  1.00  0.00     0.249 N   
ATOM     19  H14 UNL     1       3.069  -0.007  -0.579  1.00  0.00     0.199 HD  
ATOM     20  H15 UNL     1       1.938   0.258  -1.750  1.00  0.00     0.199 HD  
BRANCH  18  21
ATOM     21  C11 UNL     1       1.548  -1.379  -0.578  1.00  0.00     0.164 C   
BRANCH  21  22
ATOM     22  C12 UNL     1       2.387  -2.345  -1.367  1.00  0.00    -0.002 A   
ATOM     23  C13 UNL     1       3.467  -3.023  -0.753  1.00  0.00     0.012 A   
ATOM     24  C17 UNL     1       2.144  -2.527  -2.740  1.00  0.00     0.045 A   
ATOM     25  C14 UNL     1       4.289  -3.881  -1.492  1.00  0.00     0.037 A   
ATOM     26  C16 UNL     1       2.977  -3.375  -3.441  1.00  0.00     0.109 A   
ATOM     27  C15 UNL     1       4.019  -4.034  -2.835  1.00  0.00     0.108 A   
ATOM     28  O1  UNL     1       2.889  -3.652  -4.769  1.00  0.00    -0.316 OA  
ATOM     29  O2  UNL     1       4.715  -4.812  -3.704  1.00  0.00    -0.316 OA  
ATOM     30  C18 UNL     1       3.996  -4.567  -4.933  1.00  0.00     0.337 C   
ENDBRANCH  21  22
ENDBRANCH  18  21
ENDBRANCH  17  18
BRANCH  17  31
ATOM     31  C19 UNL     1       2.140   2.428  -0.095  1.00  0.00     0.043 C   
ATOM     32  C20 UNL     1       1.508   3.567   0.740  1.00  0.00     0.010 C   
ATOM     33  C24 UNL     1       3.635   2.355   0.281  1.00  0.00     0.010 C   
ATOM     34  C21 UNL     1       1.695   3.368   2.244  1.00  0.00     0.001 C   
ATOM     35  C23 UNL     1       3.856   2.130   1.776  1.00  0.00     0.001 C   
ATOM     36  C22 UNL     1       3.167   3.206   2.612  1.00  0.00     0.000 C   
ENDBRANCH  17  31
ENDBRANCH   3  17
TORSDOF 8
