REMARK SMILES CN(C)c1cccc(CCn2cc([C@@H]([NH2+]Cc3ccc4c(c3)OCO4)C(C)(C)C)nn2)c1
REMARK SMILES IDX 11 1 12 2 13 3 30 4 31 5 10 7 9 8 8 9 4 10 5 11 32 12 6 13
REMARK SMILES IDX 7 14 2 15 1 16 3 17 14 18 15 19 16 22 17 23 18 24 22 25
REMARK SMILES IDX 19 26 21 27 20 28 23 29 25 30 24 31 26 32 27 33 28 34 29 35
REMARK H PARENT 12 6 15 20 15 21
ROOT
ATOM     1   N2  UNL     1       1.695   3.663   0.575  1.00  0.00    -0.212 N   
ATOM     2   C10 UNL     1       2.201   2.516   1.118  1.00  0.00     0.045 A   
ATOM     3   C11 UNL     1       2.333   1.671   0.041  1.00  0.00     0.127 A   
ATOM     4   N4  UNL     1       1.970   2.340  -1.102  1.00  0.00    -0.132 NA  
ATOM     5   N5  UNL     1       1.586   3.558  -0.763  1.00  0.00    -0.076 NA  
ATOM     6   H14 UNL     1       2.326   2.385   2.184  1.00  0.00     0.083 HD  
ENDROOT
BRANCH   1   7
ATOM     7   C9  UNL     1       1.141   4.808   1.270  1.00  0.00     0.139 C   
BRANCH   7   8
ATOM     8   C8  UNL     1      -0.389   4.748   1.376  1.00  0.00     0.057 C   
BRANCH   8   9
ATOM     9   C7  UNL     1      -0.879   3.529   2.125  1.00  0.00    -0.045 A   
ATOM     10  C3  UNL     1      -1.758   1.219   2.069  1.00  0.00     0.028 A   
ATOM     11  C4  UNL     1      -1.657   1.208   3.471  1.00  0.00     0.023 A   
ATOM     12  C25 UNL     1      -1.356   2.405   1.421  1.00  0.00     0.027 A   
ATOM     13  C5  UNL     1      -1.195   2.320   4.186  1.00  0.00     0.002 A   
ATOM     14  C6  UNL     1      -0.806   3.477   3.517  1.00  0.00     0.004 A   
BRANCH  10  15
ATOM     15  N1  UNL     1      -2.190   0.103   1.310  1.00  0.00    -0.337 N   
ATOM     16  C1  UNL     1      -3.256   0.452   0.348  1.00  0.00     0.129 C   
ATOM     17  C2  UNL     1      -2.489  -1.131   2.054  1.00  0.00     0.129 C   
ENDBRANCH  10  15
ENDBRANCH   8   9
ENDBRANCH   7   8
ENDBRANCH   1   7
BRANCH   3  18
ATOM     18  C12 UNL     1       2.639   0.206  -0.027  1.00  0.00     0.120 C   
BRANCH  18  19
ATOM     19  N3  UNL     1       1.742  -0.408  -1.076  1.00  0.00     0.250 N   
ATOM     20  H16 UNL     1       1.768   0.232  -1.885  1.00  0.00     0.199 HD  
ATOM     21  H17 UNL     1       2.078  -1.313  -1.415  1.00  0.00     0.199 HD  
BRANCH  19  22
ATOM     22  C13 UNL     1       0.303  -0.540  -0.690  1.00  0.00     0.164 C   
BRANCH  22  23
ATOM     23  C14 UNL     1      -0.506  -0.965  -1.884  1.00  0.00    -0.002 A   
ATOM     24  C15 UNL     1      -0.945   0.008  -2.816  1.00  0.00     0.012 A   
ATOM     25  C19 UNL     1      -0.766  -2.324  -2.127  1.00  0.00     0.045 A   
ATOM     26  C16 UNL     1      -1.638  -0.363  -3.971  1.00  0.00     0.037 A   
ATOM     27  C18 UNL     1      -1.449  -2.657  -3.280  1.00  0.00     0.109 A   
ATOM     28  C17 UNL     1      -1.869  -1.705  -4.175  1.00  0.00     0.108 A   
ATOM     29  O1  UNL     1      -1.751  -3.920  -3.681  1.00  0.00    -0.316 OA  
ATOM     30  O2  UNL     1      -2.484  -2.251  -5.254  1.00  0.00    -0.316 OA  
ATOM     31  C20 UNL     1      -2.427  -3.657  -4.928  1.00  0.00     0.337 C   
ENDBRANCH  22  23
ENDBRANCH  19  22
ENDBRANCH  18  19
BRANCH  18  32
ATOM     32  C21 UNL     1       4.139  -0.129  -0.331  1.00  0.00     0.010 C   
ATOM     33  C22 UNL     1       4.577   0.319  -1.740  1.00  0.00     0.017 C   
ATOM     34  C23 UNL     1       4.380  -1.652  -0.203  1.00  0.00     0.017 C   
ATOM     35  C24 UNL     1       5.063   0.557   0.703  1.00  0.00     0.017 C   
ENDBRANCH  18  32
ENDBRANCH   3  18
TORSDOF 9
