REMARK SMILES Cc1cc([C@@H](CO)n2cc([C@@H]([NH2+]Cc3ccc4c(c3)OCO4)C3CCCC3)nn2)c(C)s1
REMARK SMILES IDX 8 1 9 2 10 3 28 4 29 5 5 7 4 8 2 9 3 10 32 11 30 12 1 13
REMARK SMILES IDX 31 14 6 15 7 16 11 18 12 19 13 22 14 23 15 24 19 25 16 26
REMARK SMILES IDX 18 27 17 28 20 29 22 30 21 31 23 32 24 33 27 34 25 35 26 36
REMARK H PARENT 9 6 7 17 12 20 12 21
ROOT
ATOM     1   N1  UNL     1       0.905   0.577  -2.518  1.00  0.00    -0.202 N   
ATOM     2   C7  UNL     1       0.042   0.341  -1.483  1.00  0.00     0.046 A   
ATOM     3   C8  UNL     1       0.442   1.215  -0.500  1.00  0.00     0.127 A   
ATOM     4   N3  UNL     1       1.501   1.953  -0.959  1.00  0.00    -0.132 NA  
ATOM     5   N4  UNL     1       1.775   1.557  -2.192  1.00  0.00    -0.075 NA  
ATOM     6   H9  UNL     1      -0.717  -0.429  -1.530  1.00  0.00     0.083 HD  
ENDROOT
BRANCH   1   7
ATOM     7   C5  UNL     1       1.063  -0.170  -3.765  1.00  0.00     0.156 C   
BRANCH   7   8
ATOM     8   C4  UNL     1       1.446  -1.611  -3.443  1.00  0.00    -0.013 A   
ATOM     9   C2  UNL     1       1.141  -3.907  -3.023  1.00  0.00    -0.013 A   
ATOM     10  C3  UNL     1       0.532  -2.720  -3.367  1.00  0.00     0.017 A   
ATOM     11  S1  UNL     1       2.811  -3.700  -2.771  1.00  0.00    -0.099 S   
ATOM     12  C23 UNL     1       2.739  -2.033  -3.149  1.00  0.00    -0.008 A   
ATOM     13  C1  UNL     1       0.523  -5.254  -2.858  1.00  0.00     0.052 C   
ATOM     14  C24 UNL     1       4.001  -1.230  -3.104  1.00  0.00     0.053 C   
ENDBRANCH   7   8
BRANCH   7  15
ATOM     15  C6  UNL     1      -0.133   0.022  -4.717  1.00  0.00     0.185 C   
BRANCH  15  16
ATOM     16  O1  UNL     1      -1.383  -0.366  -4.147  1.00  0.00    -0.394 OA  
ATOM     17  H8  UNL     1      -2.063  -0.231  -4.835  1.00  0.00     0.210 HD  
ENDBRANCH  15  16
ENDBRANCH   7  15
ENDBRANCH   1   7
BRANCH   3  18
ATOM     18  C9  UNL     1      -0.014   1.346   0.913  1.00  0.00     0.117 C   
BRANCH  18  19
ATOM     19  N2  UNL     1       1.168   1.479   1.852  1.00  0.00     0.249 N   
ATOM     20  H11 UNL     1       0.833   1.627   2.807  1.00  0.00     0.199 HD  
ATOM     21  H12 UNL     1       1.679   2.324   1.566  1.00  0.00     0.199 HD  
BRANCH  19  22
ATOM     22  C10 UNL     1       2.160   0.357   1.845  1.00  0.00     0.164 C   
BRANCH  22  23
ATOM     23  C11 UNL     1       1.558  -0.991   2.132  1.00  0.00    -0.002 A   
ATOM     24  C12 UNL     1       1.505  -1.973   1.113  1.00  0.00     0.012 A   
ATOM     25  C16 UNL     1       1.026  -1.281   3.400  1.00  0.00     0.045 A   
ATOM     26  C13 UNL     1       0.921  -3.222   1.345  1.00  0.00     0.037 A   
ATOM     27  C15 UNL     1       0.456  -2.522   3.595  1.00  0.00     0.109 A   
ATOM     28  C14 UNL     1       0.404  -3.465   2.597  1.00  0.00     0.108 A   
ATOM     29  O2  UNL     1      -0.110  -2.957   4.751  1.00  0.00    -0.316 OA  
ATOM     30  O3  UNL     1      -0.200  -4.613   3.001  1.00  0.00    -0.316 OA  
ATOM     31  C17 UNL     1      -0.500  -4.299   4.378  1.00  0.00     0.337 C   
ENDBRANCH  22  23
ENDBRANCH  19  22
ENDBRANCH  18  19
BRANCH  18  32
ATOM     32  C18 UNL     1      -0.966   2.528   1.182  1.00  0.00     0.043 C   
ATOM     33  C19 UNL     1      -2.251   2.516   0.353  1.00  0.00     0.010 C   
ATOM     34  C22 UNL     1      -0.420   3.933   0.914  1.00  0.00     0.010 C   
ATOM     35  C20 UNL     1      -2.850   3.892   0.614  1.00  0.00     0.001 C   
ATOM     36  C21 UNL     1      -1.661   4.823   0.844  1.00  0.00     0.001 C   
ENDBRANCH  18  32
ENDBRANCH   3  18
TORSDOF 9
