REMARK SMILES Cc1cc([C@H](CO)n2cc([C@@H]([NH2+]Cc3ccc4c(c3)OCO4)C3CCCC3)nn2)c(C)s1
REMARK SMILES IDX 8 1 9 2 10 3 28 4 29 5 5 7 4 8 2 9 3 10 32 11 30 12 1 13
REMARK SMILES IDX 31 14 6 15 7 16 11 18 12 19 13 22 14 23 15 24 19 25 16 26
REMARK SMILES IDX 18 27 17 28 20 29 22 30 21 31 23 32 24 33 27 34 25 35 26 36
REMARK H PARENT 9 6 7 17 12 20 12 21
ROOT
ATOM     1   N1  UNL     1      -1.516   0.772   0.018  1.00  0.00    -0.202 N   
ATOM     2   C7  UNL     1      -0.853   0.385  -1.119  1.00  0.00     0.046 A   
ATOM     3   C8  UNL     1      -0.258  -0.805  -0.771  1.00  0.00     0.127 A   
ATOM     4   N3  UNL     1      -0.551  -1.093   0.537  1.00  0.00    -0.132 NA  
ATOM     5   N4  UNL     1      -1.319  -0.127   1.009  1.00  0.00    -0.075 NA  
ATOM     6   H9  UNL     1      -0.878   0.969  -2.029  1.00  0.00     0.083 HD  
ENDROOT
BRANCH   1   7
ATOM     7   C5  UNL     1      -2.363   1.953   0.200  1.00  0.00     0.156 C   
BRANCH   7   8
ATOM     8   C4  UNL     1      -1.664   2.980   1.071  1.00  0.00    -0.013 A   
ATOM     9   C2  UNL     1      -0.758   3.892   3.041  1.00  0.00    -0.013 A   
ATOM     10  C3  UNL     1      -1.369   2.799   2.470  1.00  0.00     0.017 A   
ATOM     11  S1  UNL     1      -0.533   5.144   1.908  1.00  0.00    -0.099 S   
ATOM     12  C23 UNL     1      -1.241   4.234   0.644  1.00  0.00    -0.008 A   
ATOM     13  C1  UNL     1      -0.318   4.076   4.454  1.00  0.00     0.052 C   
ATOM     14  C24 UNL     1      -1.349   4.843  -0.717  1.00  0.00     0.053 C   
ENDBRANCH   7   8
BRANCH   7  15
ATOM     15  C6  UNL     1      -3.765   1.583   0.712  1.00  0.00     0.185 C   
BRANCH  15  16
ATOM     16  O1  UNL     1      -4.515   0.941  -0.323  1.00  0.00    -0.394 OA  
ATOM     17  H8  UNL     1      -5.389   0.724   0.053  1.00  0.00     0.210 HD  
ENDBRANCH  15  16
ENDBRANCH   7  15
ENDBRANCH   1   7
BRANCH   3  18
ATOM     18  C9  UNL     1       0.614  -1.743  -1.540  1.00  0.00     0.117 C   
BRANCH  18  19
ATOM     19  N2  UNL     1       1.538  -2.465  -0.584  1.00  0.00     0.249 N   
ATOM     20  H11 UNL     1       1.493  -3.479  -0.716  1.00  0.00     0.199 HD  
ATOM     21  H12 UNL     1       1.141  -2.303   0.357  1.00  0.00     0.199 HD  
BRANCH  19  22
ATOM     22  C10 UNL     1       2.958  -2.025  -0.574  1.00  0.00     0.164 C   
BRANCH  22  23
ATOM     23  C11 UNL     1       3.153  -0.576  -0.223  1.00  0.00    -0.002 A   
ATOM     24  C12 UNL     1       3.637   0.333  -1.195  1.00  0.00     0.012 A   
ATOM     25  C16 UNL     1       2.851  -0.108   1.069  1.00  0.00     0.045 A   
ATOM     26  C13 UNL     1       3.813   1.687  -0.891  1.00  0.00     0.037 A   
ATOM     27  C15 UNL     1       3.039   1.233   1.336  1.00  0.00     0.109 A   
ATOM     28  C14 UNL     1       3.506   2.105   0.384  1.00  0.00     0.108 A   
ATOM     29  O2  UNL     1       2.808   1.842   2.528  1.00  0.00    -0.316 OA  
ATOM     30  O3  UNL     1       3.627   3.373   0.855  1.00  0.00    -0.316 OA  
ATOM     31  C17 UNL     1       3.214   3.196   2.227  1.00  0.00     0.337 C   
ENDBRANCH  22  23
ENDBRANCH  19  22
ENDBRANCH  18  19
BRANCH  18  32
ATOM     32  C18 UNL     1      -0.214  -2.748  -2.365  1.00  0.00     0.043 C   
ATOM     33  C19 UNL     1      -1.084  -3.734  -1.566  1.00  0.00     0.010 C   
ATOM     34  C22 UNL     1       0.616  -3.640  -3.293  1.00  0.00     0.010 C   
ATOM     35  C20 UNL     1      -1.093  -5.037  -2.369  1.00  0.00     0.001 C   
ATOM     36  C21 UNL     1      -0.370  -4.732  -3.673  1.00  0.00     0.001 C   
ENDBRANCH  18  32
ENDBRANCH   3  18
TORSDOF 9
