REMARK SMILES OC[C@H](c1n[nH]c2c1CCC2)n1cc([C@@H]([NH2+]Cc2ccc3c(c2)OCO3)C2CCCCC2)nn1
REMARK SMILES IDX 12 1 13 2 14 3 33 4 34 5 3 7 2 8 1 9 4 11 5 12 8 13 6 14
REMARK SMILES IDX 7 15 9 16 11 17 10 18 15 20 16 21 17 24 18 25 19 26 23 27
REMARK SMILES IDX 20 28 22 29 21 30 24 31 26 32 25 33 27 34 28 35 32 36 29 37
REMARK SMILES IDX 31 38 30 39
REMARK H PARENT 13 6 1 10 6 19 16 22 16 23
ROOT
ATOM     1   N3  UNL     1      -0.736  -1.686  -0.661  1.00  0.00    -0.201 N   
ATOM     2   C9  UNL     1      -0.118  -0.532  -0.251  1.00  0.00     0.046 A   
ATOM     3   C10 UNL     1      -1.155   0.309   0.089  1.00  0.00     0.127 A   
ATOM     4   N5  UNL     1      -2.340  -0.348  -0.099  1.00  0.00    -0.132 NA  
ATOM     5   N6  UNL     1      -2.076  -1.564  -0.549  1.00  0.00    -0.075 NA  
ATOM     6   H12 UNL     1       0.958  -0.445  -0.239  1.00  0.00     0.083 HD  
ENDROOT
BRANCH   1   7
ATOM     7   C2  UNL     1      -0.148  -2.942  -1.114  1.00  0.00     0.176 C   
BRANCH   7   8
ATOM     8   C1  UNL     1       1.036  -3.403  -0.246  1.00  0.00     0.187 C   
BRANCH   8   9
ATOM     9   O1  UNL     1       0.652  -3.581   1.123  1.00  0.00    -0.394 OA  
ATOM     10  H1  UNL     1       1.333  -4.146   1.534  1.00  0.00     0.210 HD  
ENDBRANCH   8   9
ENDBRANCH   7   8
BRANCH   7  11
ATOM     11  C3  UNL     1       0.231  -2.811  -2.559  1.00  0.00     0.088 A   
ATOM     12  N1  UNL     1       1.333  -2.126  -2.947  1.00  0.00    -0.187 NA  
ATOM     13  C5  UNL     1      -0.430  -3.341  -3.672  1.00  0.00    -0.004 A   
ATOM     14  N2  UNL     1       1.351  -2.235  -4.304  1.00  0.00    -0.242 N   
ATOM     15  C4  UNL     1       0.305  -2.956  -4.749  1.00  0.00     0.030 A   
ATOM     16  C6  UNL     1      -1.604  -4.139  -4.070  1.00  0.00     0.039 C   
ATOM     17  C8  UNL     1      -0.206  -3.397  -6.053  1.00  0.00     0.054 C   
ATOM     18  C7  UNL     1      -1.622  -3.929  -5.628  1.00  0.00     0.011 C   
ATOM     19  H5  UNL     1       2.103  -1.794  -4.827  1.00  0.00     0.175 HD  
ENDBRANCH   7  11
ENDBRANCH   1   7
BRANCH   3  20
ATOM     20  C11 UNL     1      -1.174   1.665   0.712  1.00  0.00     0.117 C   
BRANCH  20  21
ATOM     21  N4  UNL     1      -0.652   1.609   2.125  1.00  0.00     0.249 N   
ATOM     22  H14 UNL     1      -0.518   2.557   2.494  1.00  0.00     0.199 HD  
ATOM     23  H15 UNL     1       0.271   1.161   2.125  1.00  0.00     0.199 HD  
BRANCH  21  24
ATOM     24  C12 UNL     1      -1.526   0.853   3.075  1.00  0.00     0.164 C   
BRANCH  24  25
ATOM     25  C13 UNL     1      -0.897   0.814   4.440  1.00  0.00    -0.002 A   
ATOM     26  C14 UNL     1      -0.110  -0.297   4.827  1.00  0.00     0.012 A   
ATOM     27  C18 UNL     1      -1.046   1.899   5.320  1.00  0.00     0.045 A   
ATOM     28  C15 UNL     1       0.515  -0.333   6.078  1.00  0.00     0.037 A   
ATOM     29  C17 UNL     1      -0.410   1.836   6.542  1.00  0.00     0.109 A   
ATOM     30  C16 UNL     1       0.348   0.751   6.911  1.00  0.00     0.108 A   
ATOM     31  O2  UNL     1      -0.442   2.798   7.502  1.00  0.00    -0.316 OA  
ATOM     32  O3  UNL     1       0.882   0.890   8.152  1.00  0.00    -0.316 OA  
ATOM     33  C19 UNL     1       0.367   2.185   8.532  1.00  0.00     0.337 C   
ENDBRANCH  24  25
ENDBRANCH  21  24
ENDBRANCH  20  21
BRANCH  20  34
ATOM     34  C20 UNL     1      -0.447   2.794  -0.064  1.00  0.00     0.043 C   
ATOM     35  C21 UNL     1      -1.035   2.971  -1.478  1.00  0.00     0.010 C   
ATOM     36  C25 UNL     1       1.086   2.673  -0.130  1.00  0.00     0.010 C   
ATOM     37  C22 UNL     1      -0.398   4.148  -2.215  1.00  0.00     0.001 C   
ATOM     38  C24 UNL     1       1.711   3.859  -0.866  1.00  0.00     0.001 C   
ATOM     39  C23 UNL     1       1.121   4.027  -2.262  1.00  0.00     0.000 C   
ENDBRANCH  20  34
ENDBRANCH   3  20
TORSDOF 9
