REMARK SMILES CC(C)(C)[C@H]([NH2+]Cc1ccc2c(c1)OCO2)c1cn(Cc2ccccc2[S+]([O-])[O-])nn1
REMARK SMILES IDX 17 1 18 2 19 3 30 4 31 5 5 7 2 8 1 9 3 10 4 11 6 12 7 15
REMARK SMILES IDX 8 16 9 17 13 18 10 19 12 20 11 21 14 22 16 23 15 24 20 25
REMARK SMILES IDX 21 26 22 27 26 28 23 29 25 30 24 31 27 32 28 33 29 34
REMARK H PARENT 18 6 6 13 6 14
ROOT
ATOM     1   C14 UNL     1      -0.505   0.939  -0.806  1.00  0.00     0.127 A   
ATOM     2   C15 UNL     1      -1.239   1.380   0.284  1.00  0.00     0.046 A   
ATOM     3   N2  UNL     1      -2.384   0.646   0.141  1.00  0.00    -0.208 N   
ATOM     4   N3  UNL     1      -2.564   0.320  -1.155  1.00  0.00    -0.076 NA  
ATOM     5   N4  UNL     1      -1.377   0.431  -1.733  1.00  0.00    -0.132 NA  
ATOM     6   H20 UNL     1      -0.949   1.797   1.240  1.00  0.00     0.083 HD  
ENDROOT
BRANCH   1   7
ATOM     7   C5  UNL     1       0.996   0.778  -0.880  1.00  0.00     0.120 C   
BRANCH   7   8
ATOM     8   C2  UNL     1       1.563   0.210  -2.241  1.00  0.00     0.010 C   
ATOM     9   C1  UNL     1       1.103  -1.234  -2.554  1.00  0.00     0.017 C   
ATOM     10  C3  UNL     1       3.111   0.191  -2.251  1.00  0.00     0.017 C   
ATOM     11  C4  UNL     1       1.153   1.136  -3.413  1.00  0.00     0.017 C   
ENDBRANCH   7   8
BRANCH   7  12
ATOM     12  N1  UNL     1       1.421  -0.053   0.296  1.00  0.00     0.250 N   
ATOM     13  H11 UNL     1       0.681   0.025   1.032  1.00  0.00     0.199 HD  
ATOM     14  H12 UNL     1       1.249  -1.068   0.136  1.00  0.00     0.199 HD  
BRANCH  12  15
ATOM     15  C6  UNL     1       2.664   0.169   1.039  1.00  0.00     0.164 C   
BRANCH  15  16
ATOM     16  C7  UNL     1       2.662   1.411   1.895  1.00  0.00    -0.002 A   
ATOM     17  C8  UNL     1       3.158   2.638   1.394  1.00  0.00     0.012 A   
ATOM     18  C12 UNL     1       2.161   1.352   3.209  1.00  0.00     0.045 A   
ATOM     19  C9  UNL     1       3.174   3.789   2.192  1.00  0.00     0.037 A   
ATOM     20  C11 UNL     1       2.206   2.500   3.976  1.00  0.00     0.109 A   
ATOM     21  C10 UNL     1       2.700   3.685   3.482  1.00  0.00     0.108 A   
ATOM     22  O1  UNL     1       1.802   2.607   5.268  1.00  0.00    -0.316 OA  
ATOM     23  O2  UNL     1       2.665   4.692   4.399  1.00  0.00    -0.316 OA  
ATOM     24  C13 UNL     1       2.111   3.992   5.540  1.00  0.00     0.337 C   
ENDBRANCH  15  16
ENDBRANCH  12  15
ENDBRANCH   7  12
ENDBRANCH   1   7
BRANCH   3  25
ATOM     25  C16 UNL     1      -3.191   0.073   1.204  1.00  0.00     0.174 C   
BRANCH  25  26
ATOM     26  C17 UNL     1      -3.301  -1.435   1.107  1.00  0.00     0.028 A   
ATOM     27  C18 UNL     1      -4.539  -1.952   0.656  1.00  0.00     0.011 A   
ATOM     28  C22 UNL     1      -2.266  -2.351   1.410  1.00  0.00     0.172 A   
ATOM     29  C19 UNL     1      -4.756  -3.324   0.522  1.00  0.00     0.001 A   
ATOM     30  C21 UNL     1      -2.505  -3.731   1.266  1.00  0.00     0.063 A   
ATOM     31  C20 UNL     1      -3.737  -4.216   0.831  1.00  0.00     0.005 A   
BRANCH  28  32
ATOM     32  S1  UNL     1      -0.578  -1.938   1.999  1.00  0.00     0.041 S   
ATOM     33  O3  UNL     1       0.400  -2.340   0.909  1.00  0.00    -0.672 OA  
ATOM     34  O4  UNL     1      -0.463  -0.468   2.307  1.00  0.00    -0.672 OA  
ENDBRANCH  28  32
ENDBRANCH  25  26
ENDBRANCH   3  25
TORSDOF 8
