REMARK SMILES CCOc1cccc(Cn2cc([C@@H]([NH2+]Cc3ccc4c(c3)OCO4)C(C)C)nn2)c1O
REMARK SMILES IDX 10 1 11 2 12 3 28 4 29 5 9 7 8 8 4 9 5 10 30 11 6 12 7 13
REMARK SMILES IDX 3 14 2 15 1 16 31 17 13 19 14 20 15 23 16 24 17 25 21 26
REMARK SMILES IDX 18 27 20 28 19 29 22 30 24 31 23 32 25 33 26 34 27 35
REMARK H PARENT 11 6 31 18 14 21 14 22
ROOT
ATOM     1   N1  UNL     1      -0.899   1.218   1.200  1.00  0.00    -0.208 N   
ATOM     2   C9  UNL     1      -1.326   1.562  -0.053  1.00  0.00     0.046 A   
ATOM     3   C10 UNL     1      -2.291   0.627  -0.344  1.00  0.00     0.127 A   
ATOM     4   N3  UNL     1      -2.441  -0.218   0.727  1.00  0.00    -0.132 NA  
ATOM     5   N4  UNL     1      -1.597   0.164   1.672  1.00  0.00    -0.076 NA  
ATOM     6   H11 UNL     1      -0.891   2.385  -0.602  1.00  0.00     0.083 HD  
ENDROOT
BRANCH   1   7
ATOM     7   C8  UNL     1       0.108   1.873   2.014  1.00  0.00     0.172 C   
BRANCH   7   8
ATOM     8   C7  UNL     1       1.451   1.212   1.869  1.00  0.00     0.004 A   
ATOM     9   C3  UNL     1       3.517   0.833   0.611  1.00  0.00     0.105 A   
ATOM     10  C4  UNL     1       3.970  -0.028   1.608  1.00  0.00     0.036 A   
ATOM     11  C23 UNL     1       2.266   1.449   0.759  1.00  0.00     0.106 A   
ATOM     12  C5  UNL     1       3.168  -0.280   2.724  1.00  0.00     0.003 A   
ATOM     13  C6  UNL     1       1.916   0.326   2.851  1.00  0.00     0.008 A   
BRANCH   9  14
ATOM     14  O1  UNL     1       4.183   1.161  -0.543  1.00  0.00    -0.344 OA  
BRANCH  14  15
ATOM     15  C2  UNL     1       5.408   0.469  -0.792  1.00  0.00     0.164 C   
ATOM     16  C1  UNL     1       5.925   0.911  -2.149  1.00  0.00     0.035 C   
ENDBRANCH  14  15
ENDBRANCH   9  14
BRANCH  11  17
ATOM     17  O4  UNL     1       1.835   2.313  -0.217  1.00  0.00    -0.358 OA  
ATOM     18  H29 UNL     1       2.597   2.380  -0.831  1.00  0.00     0.218 HD  
ENDBRANCH  11  17
ENDBRANCH   7   8
ENDBRANCH   1   7
BRANCH   3  19
ATOM     19  C11 UNL     1      -3.093   0.395  -1.580  1.00  0.00     0.117 C   
BRANCH  19  20
ATOM     20  N2  UNL     1      -3.365  -1.082  -1.748  1.00  0.00     0.249 N   
ATOM     21  H13 UNL     1      -4.328  -1.250  -2.048  1.00  0.00     0.199 HD  
ATOM     22  H14 UNL     1      -3.292  -1.488  -0.800  1.00  0.00     0.199 HD  
BRANCH  20  23
ATOM     23  C12 UNL     1      -2.437  -1.823  -2.646  1.00  0.00     0.164 C   
BRANCH  23  24
ATOM     24  C13 UNL     1      -1.039  -1.953  -2.112  1.00  0.00    -0.002 A   
ATOM     25  C14 UNL     1       0.010  -1.155  -2.629  1.00  0.00     0.012 A   
ATOM     26  C18 UNL     1      -0.765  -2.864  -1.077  1.00  0.00     0.045 A   
ATOM     27  C15 UNL     1       1.313  -1.265  -2.129  1.00  0.00     0.037 A   
ATOM     28  C17 UNL     1       0.530  -2.951  -0.610  1.00  0.00     0.109 A   
ATOM     29  C16 UNL     1       1.541  -2.177  -1.123  1.00  0.00     0.108 A   
ATOM     30  O2  UNL     1       0.960  -3.790   0.368  1.00  0.00    -0.316 OA  
ATOM     31  O3  UNL     1       2.739  -2.435  -0.537  1.00  0.00    -0.316 OA  
ATOM     32  C19 UNL     1       2.362  -3.448   0.421  1.00  0.00     0.337 C   
ENDBRANCH  23  24
ENDBRANCH  20  23
ENDBRANCH  19  20
BRANCH  19  33
ATOM     33  C20 UNL     1      -4.420   1.199  -1.582  1.00  0.00     0.037 C   
ATOM     34  C21 UNL     1      -5.426   0.759  -0.510  1.00  0.00     0.014 C   
ATOM     35  C22 UNL     1      -5.090   1.175  -2.962  1.00  0.00     0.014 C   
ENDBRANCH  19  33
ENDBRANCH   3  19
TORSDOF 10
