REMARK SMILES Nc1ccc(Cn2cc([C@@H]([NH2+]Cc3ccc4c(c3)OCO4)C3CCCCC3)nn2)cc1N
REMARK SMILES IDX 7 1 8 2 9 3 28 4 29 5 6 7 5 8 2 9 3 10 31 11 4 12 30 13 1 14
REMARK SMILES IDX 32 17 10 20 11 21 12 24 13 25 14 26 18 27 15 28 17 29 16 30
REMARK SMILES IDX 19 31 21 32 20 33 22 34 23 35 27 36 24 37 26 38 25 39
REMARK H PARENT 8 6 1 15 1 16 32 18 32 19 11 22 11 23
ROOT
ATOM     1   N2  UNL     1      -1.562   3.106   1.988  1.00  0.00    -0.208 N   
ATOM     2   C6  UNL     1      -0.313   2.667   2.346  1.00  0.00     0.046 A   
ATOM     3   C7  UNL     1       0.214   2.189   1.168  1.00  0.00     0.127 A   
ATOM     4   N4  UNL     1      -0.664   2.435   0.145  1.00  0.00    -0.132 NA  
ATOM     5   N5  UNL     1      -1.739   3.011   0.655  1.00  0.00    -0.076 NA  
ATOM     6   H7  UNL     1       0.010   2.630   3.377  1.00  0.00     0.083 HD  
ENDROOT
BRANCH   1   7
ATOM     7   C5  UNL     1      -2.698   3.353   2.867  1.00  0.00     0.169 C   
BRANCH   7   8
ATOM     8   C4  UNL     1      -3.104   2.057   3.530  1.00  0.00    -0.027 A   
ATOM     9   C1  UNL     1      -3.628  -0.463   4.690  1.00  0.00     0.044 A   
ATOM     10  C2  UNL     1      -3.113   0.592   5.457  1.00  0.00     0.025 A   
ATOM     11  C24 UNL     1      -3.871  -0.260   3.315  1.00  0.00     0.045 A   
ATOM     12  C3  UNL     1      -2.879   1.847   4.893  1.00  0.00     0.007 A   
ATOM     13  C23 UNL     1      -3.604   0.996   2.754  1.00  0.00     0.030 A   
BRANCH   9  14
ATOM     14  N1  UNL     1      -3.700  -1.747   5.266  1.00  0.00    -0.357 N   
ATOM     15  H1  UNL     1      -3.785  -1.723   6.278  1.00  0.00     0.143 HD  
ATOM     16  H2  UNL     1      -4.435  -2.316   4.860  1.00  0.00     0.143 HD  
ENDBRANCH   9  14
BRANCH  11  17
ATOM     17  N6  UNL     1      -4.146  -1.333   2.443  1.00  0.00    -0.357 N   
ATOM     18  H30 UNL     1      -4.691  -1.070   1.629  1.00  0.00     0.143 HD  
ATOM     19  H31 UNL     1      -4.540  -2.142   2.911  1.00  0.00     0.143 HD  
ENDBRANCH  11  17
ENDBRANCH   7   8
ENDBRANCH   1   7
BRANCH   3  20
ATOM     20  C8  UNL     1       1.428   1.357   0.907  1.00  0.00     0.117 C   
BRANCH  20  21
ATOM     21  N3  UNL     1       1.056   0.222  -0.009  1.00  0.00     0.249 N   
ATOM     22  H9  UNL     1       1.861  -0.147  -0.522  1.00  0.00     0.199 HD  
ATOM     23  H10 UNL     1       0.420   0.617  -0.721  1.00  0.00     0.199 HD  
BRANCH  21  24
ATOM     24  C9  UNL     1       0.325  -0.901   0.649  1.00  0.00     0.164 C   
BRANCH  24  25
ATOM     25  C10 UNL     1      -0.118  -1.913  -0.369  1.00  0.00    -0.002 A   
ATOM     26  C11 UNL     1       0.796  -2.863  -0.881  1.00  0.00     0.012 A   
ATOM     27  C15 UNL     1      -1.440  -1.895  -0.845  1.00  0.00     0.045 A   
ATOM     28  C12 UNL     1       0.402  -3.787  -1.855  1.00  0.00     0.037 A   
ATOM     29  C14 UNL     1      -1.799  -2.824  -1.798  1.00  0.00     0.109 A   
ATOM     30  C13 UNL     1      -0.905  -3.743  -2.290  1.00  0.00     0.108 A   
ATOM     31  O1  UNL     1      -3.036  -2.958  -2.347  1.00  0.00    -0.316 OA  
ATOM     32  O2  UNL     1      -1.462  -4.564  -3.217  1.00  0.00    -0.316 OA  
ATOM     33  C16 UNL     1      -2.824  -4.083  -3.228  1.00  0.00     0.337 C   
ENDBRANCH  24  25
ENDBRANCH  21  24
ENDBRANCH  20  21
BRANCH  20  34
ATOM     34  C17 UNL     1       2.611   2.175   0.331  1.00  0.00     0.043 C   
ATOM     35  C18 UNL     1       3.930   1.381   0.412  1.00  0.00     0.010 C   
ATOM     36  C22 UNL     1       2.389   2.693  -1.103  1.00  0.00     0.010 C   
ATOM     37  C19 UNL     1       5.118   2.198  -0.092  1.00  0.00     0.001 C   
ATOM     38  C21 UNL     1       3.584   3.504  -1.603  1.00  0.00     0.001 C   
ATOM     39  C20 UNL     1       4.883   2.714  -1.507  1.00  0.00     0.000 C   
ENDBRANCH  20  34
ENDBRANCH   3  20
TORSDOF 9
