REMARK SMILES Cc1nc[nH]c1[C@H](CO)n1cc([C@@H]([NH2+]Cc2ccc3c(c2)OCO3)C(C)(C)C)nn1
REMARK SMILES IDX 10 1 11 2 12 3 29 4 30 5 7 7 6 8 2 9 3 10 4 11 5 12 1 13
REMARK SMILES IDX 8 15 9 16 13 18 14 19 15 22 16 23 17 24 21 25 18 26 20 27
REMARK SMILES IDX 19 28 22 29 24 30 23 31 25 32 26 33 27 34 28 35
REMARK H PARENT 11 6 5 14 9 17 14 20 14 21
ROOT
ATOM     1   N3  UNL     1       0.147  -2.138   1.193  1.00  0.00    -0.201 N   
ATOM     2   C7  UNL     1      -0.957  -1.325   1.260  1.00  0.00     0.046 A   
ATOM     3   C8  UNL     1      -0.985  -0.690   0.038  1.00  0.00     0.127 A   
ATOM     4   N5  UNL     1       0.079  -1.120  -0.713  1.00  0.00    -0.132 NA  
ATOM     5   N6  UNL     1       0.761  -2.001  -0.000  1.00  0.00    -0.075 NA  
ATOM     6   H10 UNL     1      -1.574  -1.267   2.147  1.00  0.00     0.083 HD  
ENDROOT
BRANCH   1   7
ATOM     7   C5  UNL     1       0.664  -3.018   2.237  1.00  0.00     0.171 C   
BRANCH   7   8
ATOM     8   C4  UNL     1       1.344  -2.222   3.319  1.00  0.00     0.055 A   
ATOM     9   C2  UNL     1       2.143  -1.090   3.328  1.00  0.00     0.058 A   
ATOM     10  N1  UNL     1       2.473  -0.752   4.617  1.00  0.00    -0.245 NA  
ATOM     11  C3  UNL     1       1.969  -1.693   5.378  1.00  0.00     0.186 A   
ATOM     12  N2  UNL     1       1.293  -2.618   4.639  1.00  0.00    -0.306 N   
ATOM     13  C1  UNL     1       2.648  -0.262   2.208  1.00  0.00     0.068 C   
ATOM     14  H5  UNL     1       0.863  -3.461   4.999  1.00  0.00     0.154 HD  
ENDBRANCH   7   8
BRANCH   7  15
ATOM     15  C6  UNL     1       1.570  -4.145   1.711  1.00  0.00     0.187 C   
BRANCH  15  16
ATOM     16  O1  UNL     1       1.669  -5.179   2.698  1.00  0.00    -0.394 OA  
ATOM     17  H9  UNL     1       2.314  -5.830   2.362  1.00  0.00     0.210 HD  
ENDBRANCH  15  16
ENDBRANCH   7  15
ENDBRANCH   1   7
BRANCH   3  18
ATOM     18  C9  UNL     1      -1.885   0.382  -0.503  1.00  0.00     0.120 C   
BRANCH  18  19
ATOM     19  N4  UNL     1      -1.057   1.321  -1.348  1.00  0.00     0.250 N   
ATOM     20  H12 UNL     1      -0.450   0.729  -1.936  1.00  0.00     0.199 HD  
ATOM     21  H13 UNL     1      -1.622   1.877  -1.994  1.00  0.00     0.199 HD  
BRANCH  19  22
ATOM     22  C10 UNL     1      -0.164   2.242  -0.588  1.00  0.00     0.164 C   
BRANCH  22  23
ATOM     23  C11 UNL     1       0.689   3.040  -1.532  1.00  0.00    -0.002 A   
ATOM     24  C12 UNL     1       0.289   4.331  -1.947  1.00  0.00     0.012 A   
ATOM     25  C16 UNL     1       1.869   2.478  -2.051  1.00  0.00     0.045 A   
ATOM     26  C13 UNL     1       1.057   5.061  -2.861  1.00  0.00     0.037 A   
ATOM     27  C15 UNL     1       2.602   3.224  -2.951  1.00  0.00     0.109 A   
ATOM     28  C14 UNL     1       2.208   4.478  -3.345  1.00  0.00     0.108 A   
ATOM     29  O2  UNL     1       3.757   2.831  -3.547  1.00  0.00    -0.316 OA  
ATOM     30  O3  UNL     1       3.067   5.035  -4.238  1.00  0.00    -0.316 OA  
ATOM     31  C17 UNL     1       4.062   3.994  -4.349  1.00  0.00     0.337 C   
ENDBRANCH  22  23
ENDBRANCH  19  22
ENDBRANCH  18  19
BRANCH  18  32
ATOM     32  C18 UNL     1      -3.106  -0.160  -1.326  1.00  0.00     0.010 C   
ATOM     33  C19 UNL     1      -4.048   1.002  -1.719  1.00  0.00     0.017 C   
ATOM     34  C20 UNL     1      -2.679  -0.894  -2.613  1.00  0.00     0.017 C   
ATOM     35  C21 UNL     1      -3.939  -1.137  -0.464  1.00  0.00     0.017 C   
ENDBRANCH  18  32
ENDBRANCH   3  18
TORSDOF 9
