REMARK SMILES Cc1nc[nH]c1[C@@H](CO)n1cc([C@@H]([NH2+]Cc2ccc3c(c2)OCO3)C(C)(C)C)nn1
REMARK SMILES IDX 10 1 11 2 12 3 29 4 30 5 7 7 6 8 2 9 3 10 4 11 5 12 1 13
REMARK SMILES IDX 8 15 9 16 13 18 14 19 15 22 16 23 17 24 21 25 18 26 20 27
REMARK SMILES IDX 19 28 22 29 24 30 23 31 25 32 26 33 27 34 28 35
REMARK H PARENT 11 6 5 14 9 17 14 20 14 21
ROOT
ATOM     1   N3  UNL     1       1.148   1.197   0.352  1.00  0.00    -0.201 N   
ATOM     2   C7  UNL     1       0.476   0.177   0.973  1.00  0.00     0.046 A   
ATOM     3   C8  UNL     1       1.317  -0.905   0.851  1.00  0.00     0.127 A   
ATOM     4   N5  UNL     1       2.440  -0.527   0.160  1.00  0.00    -0.132 NA  
ATOM     5   N6  UNL     1       2.331   0.759  -0.130  1.00  0.00    -0.075 NA  
ATOM     6   H10 UNL     1      -0.496   0.315   1.423  1.00  0.00     0.083 HD  
ENDROOT
BRANCH   1   7
ATOM     7   C5  UNL     1       0.772   2.605   0.206  1.00  0.00     0.171 C   
BRANCH   7   8
ATOM     8   C4  UNL     1      -0.628   2.739  -0.319  1.00  0.00     0.055 A   
ATOM     9   C2  UNL     1      -1.129   2.771  -1.608  1.00  0.00     0.058 A   
ATOM     10  N1  UNL     1      -2.497   2.889  -1.583  1.00  0.00    -0.245 NA  
ATOM     11  C3  UNL     1      -2.830   2.958  -0.317  1.00  0.00     0.186 A   
ATOM     12  N2  UNL     1      -1.735   2.874   0.488  1.00  0.00    -0.306 N   
ATOM     13  C1  UNL     1      -0.402   2.708  -2.898  1.00  0.00     0.068 C   
ATOM     14  H5  UNL     1      -1.726   2.920   1.502  1.00  0.00     0.154 HD  
ENDBRANCH   7   8
BRANCH   7  15
ATOM     15  C6  UNL     1       1.029   3.387   1.509  1.00  0.00     0.187 C   
BRANCH  15  16
ATOM     16  O1  UNL     1       0.140   2.996   2.567  1.00  0.00    -0.394 OA  
ATOM     17  H9  UNL     1       0.408   3.509   3.354  1.00  0.00     0.210 HD  
ENDBRANCH  15  16
ENDBRANCH   7  15
ENDBRANCH   1   7
BRANCH   3  18
ATOM     18  C9  UNL     1       1.159  -2.334   1.271  1.00  0.00     0.120 C   
BRANCH  18  19
ATOM     19  N4  UNL     1       1.780  -3.217   0.203  1.00  0.00     0.250 N   
ATOM     20  H12 UNL     1       2.382  -3.936   0.611  1.00  0.00     0.199 HD  
ATOM     21  H13 UNL     1       2.418  -2.604  -0.331  1.00  0.00     0.199 HD  
BRANCH  19  22
ATOM     22  C10 UNL     1       0.836  -3.855  -0.756  1.00  0.00     0.164 C   
BRANCH  22  23
ATOM     23  C11 UNL     1       0.119  -2.875  -1.639  1.00  0.00    -0.002 A   
ATOM     24  C12 UNL     1       0.801  -2.246  -2.708  1.00  0.00     0.012 A   
ATOM     25  C16 UNL     1      -1.228  -2.553  -1.395  1.00  0.00     0.045 A   
ATOM     26  C13 UNL     1       0.153  -1.314  -3.525  1.00  0.00     0.037 A   
ATOM     27  C15 UNL     1      -1.834  -1.624  -2.214  1.00  0.00     0.109 A   
ATOM     28  C14 UNL     1      -1.165  -1.025  -3.252  1.00  0.00     0.108 A   
ATOM     29  O2  UNL     1      -3.120  -1.198  -2.109  1.00  0.00    -0.316 OA  
ATOM     30  O3  UNL     1      -1.946  -0.153  -3.939  1.00  0.00    -0.316 OA  
ATOM     31  C17 UNL     1      -3.187  -0.257  -3.207  1.00  0.00     0.337 C   
ENDBRANCH  22  23
ENDBRANCH  19  22
ENDBRANCH  18  19
BRANCH  18  32
ATOM     32  C18 UNL     1       1.768  -2.663   2.679  1.00  0.00     0.010 C   
ATOM     33  C19 UNL     1       3.294  -2.454   2.737  1.00  0.00     0.017 C   
ATOM     34  C20 UNL     1       1.118  -1.768   3.760  1.00  0.00     0.017 C   
ATOM     35  C21 UNL     1       1.456  -4.128   3.064  1.00  0.00     0.017 C   
ENDBRANCH  18  32
ENDBRANCH   3  18
TORSDOF 9
