REMARK SMILES CC(C)[C@H]([NH2+]Cc1ccc2c(c1)OCO2)c1cn(Cc2cnn(C(C)C)c2)nn1
REMARK SMILES IDX 16 1 17 2 18 3 28 4 29 5 4 7 2 8 1 9 3 10 5 11 6 14 7 15
REMARK SMILES IDX 8 16 12 17 9 18 11 19 10 20 13 21 15 22 14 23 19 24 20 25
REMARK SMILES IDX 21 26 27 27 22 28 23 29 24 30 25 31 26 32
REMARK H PARENT 17 6 5 12 5 13
ROOT
ATOM     1   C13 UNL     1      -0.869  -0.337  -1.509  1.00  0.00     0.127 A   
ATOM     2   C14 UNL     1      -0.585   0.993  -1.727  1.00  0.00     0.046 A   
ATOM     3   N2  UNL     1      -1.806   1.608  -1.656  1.00  0.00    -0.208 N   
ATOM     4   N5  UNL     1      -2.782   0.709  -1.424  1.00  0.00    -0.076 NA  
ATOM     5   N6  UNL     1      -2.222  -0.486  -1.340  1.00  0.00    -0.132 NA  
ATOM     6   H18 UNL     1       0.331   1.545  -1.886  1.00  0.00     0.083 HD  
ENDROOT
BRANCH   1   7
ATOM     7   C4  UNL     1       0.026  -1.528  -1.386  1.00  0.00     0.117 C   
BRANCH   7   8
ATOM     8   C2  UNL     1       0.377  -2.143  -2.767  1.00  0.00     0.037 C   
ATOM     9   C1  UNL     1       1.552  -3.124  -2.664  1.00  0.00     0.014 C   
ATOM     10  C3  UNL     1      -0.804  -2.823  -3.470  1.00  0.00     0.014 C   
ENDBRANCH   7   8
BRANCH   7  11
ATOM     11  N1  UNL     1      -0.608  -2.571  -0.495  1.00  0.00     0.249 N   
ATOM     12  H9  UNL     1      -0.166  -3.483  -0.624  1.00  0.00     0.199 HD  
ATOM     13  H10 UNL     1      -1.586  -2.657  -0.807  1.00  0.00     0.199 HD  
BRANCH  11  14
ATOM     14  C5  UNL     1      -0.649  -2.250   0.965  1.00  0.00     0.164 C   
BRANCH  14  15
ATOM     15  C6  UNL     1       0.714  -2.252   1.601  1.00  0.00    -0.002 A   
ATOM     16  C7  UNL     1       1.294  -1.038   2.046  1.00  0.00     0.012 A   
ATOM     17  C11 UNL     1       1.430  -3.454   1.743  1.00  0.00     0.045 A   
ATOM     18  C8  UNL     1       2.571  -1.019   2.619  1.00  0.00     0.037 A   
ATOM     19  C10 UNL     1       2.688  -3.398   2.311  1.00  0.00     0.109 A   
ATOM     20  C9  UNL     1       3.242  -2.217   2.737  1.00  0.00     0.108 A   
ATOM     21  O1  UNL     1       3.509  -4.462   2.515  1.00  0.00    -0.316 OA  
ATOM     22  O2  UNL     1       4.481  -2.387   3.267  1.00  0.00    -0.316 OA  
ATOM     23  C12 UNL     1       4.638  -3.817   3.150  1.00  0.00     0.337 C   
ENDBRANCH  14  15
ENDBRANCH  11  14
ENDBRANCH   7  11
ENDBRANCH   1   7
BRANCH   3  24
ATOM     24  C15 UNL     1      -2.104   3.029  -1.738  1.00  0.00     0.172 C   
BRANCH  24  25
ATOM     25  C16 UNL     1      -1.651   3.720  -0.502  1.00  0.00     0.007 A   
ATOM     26  C17 UNL     1      -2.114   3.506   0.818  1.00  0.00     0.138 A   
ATOM     27  C21 UNL     1      -0.698   4.709  -0.364  1.00  0.00     0.103 A   
ATOM     28  N3  UNL     1      -1.478   4.262   1.712  1.00  0.00    -0.190 NA  
ATOM     29  N4  UNL     1      -0.646   5.017   0.969  1.00  0.00    -0.230 N   
BRANCH  29  30
ATOM     30  C18 UNL     1       0.188   6.040   1.597  1.00  0.00     0.091 C   
ATOM     31  C19 UNL     1       1.062   5.458   2.709  1.00  0.00     0.030 C   
ATOM     32  C20 UNL     1      -0.661   7.205   2.101  1.00  0.00     0.030 C   
ENDBRANCH  29  30
ENDBRANCH  24  25
ENDBRANCH   3  24
TORSDOF 8
