REMARK SMILES CC(C)C[C@H]([NH2+]Cc1ccc2c(c1)OCO2)c1cn(Cc2ccnn2C)nn1
REMARK SMILES IDX 17 1 18 2 19 3 27 4 28 5 5 7 4 8 2 9 1 10 3 11 6 12 7 15
REMARK SMILES IDX 8 16 9 17 13 18 10 19 12 20 11 21 14 22 16 23 15 24 20 25
REMARK SMILES IDX 21 26 22 27 25 28 23 29 24 30 26 31
REMARK H PARENT 18 6 6 13 6 14
ROOT
ATOM     1   C14 UNL     1      -1.875   1.155   1.119  1.00  0.00     0.127 A   
ATOM     2   C15 UNL     1      -1.698   2.337   0.438  1.00  0.00     0.046 A   
ATOM     3   N2  UNL     1      -1.579   3.274   1.428  1.00  0.00    -0.206 N   
ATOM     4   N5  UNL     1      -1.718   2.708   2.643  1.00  0.00    -0.076 NA  
ATOM     5   N6  UNL     1      -1.908   1.410   2.466  1.00  0.00    -0.132 NA  
ATOM     6   H20 UNL     1      -1.583   2.584  -0.609  1.00  0.00     0.083 HD  
ENDROOT
BRANCH   1   7
ATOM     7   C5  UNL     1      -1.927  -0.253   0.623  1.00  0.00     0.114 C   
BRANCH   7   8
ATOM     8   C4  UNL     1      -3.380  -0.769   0.599  1.00  0.00     0.064 C   
BRANCH   8   9
ATOM     9   C2  UNL     1      -3.592  -2.199   0.058  1.00  0.00    -0.012 C   
ATOM     10  C1  UNL     1      -3.050  -2.377  -1.361  1.00  0.00     0.007 C   
ATOM     11  C3  UNL     1      -5.084  -2.544   0.087  1.00  0.00     0.007 C   
ENDBRANCH   8   9
ENDBRANCH   7   8
BRANCH   7  12
ATOM     12  N1  UNL     1      -1.094  -1.168   1.490  1.00  0.00     0.249 N   
ATOM     13  H11 UNL     1      -1.502  -1.137   2.434  1.00  0.00     0.199 HD  
ATOM     14  H12 UNL     1      -1.168  -2.132   1.155  1.00  0.00     0.199 HD  
BRANCH  12  15
ATOM     15  C6  UNL     1       0.359  -0.827   1.629  1.00  0.00     0.164 C   
BRANCH  15  16
ATOM     16  C7  UNL     1       1.087  -0.731   0.317  1.00  0.00    -0.002 A   
ATOM     17  C8  UNL     1       1.626   0.509  -0.104  1.00  0.00     0.012 A   
ATOM     18  C12 UNL     1       1.228  -1.861  -0.507  1.00  0.00     0.045 A   
ATOM     19  C9  UNL     1       2.280   0.629  -1.334  1.00  0.00     0.037 A   
ATOM     20  C11 UNL     1       1.876  -1.706  -1.715  1.00  0.00     0.109 A   
ATOM     21  C10 UNL     1       2.386  -0.497  -2.119  1.00  0.00     0.108 A   
ATOM     22  O1  UNL     1       2.085  -2.689  -2.629  1.00  0.00    -0.316 OA  
ATOM     23  O2  UNL     1       2.981  -0.566  -3.338  1.00  0.00    -0.316 OA  
ATOM     24  C13 UNL     1       2.821  -1.968  -3.644  1.00  0.00     0.337 C   
ENDBRANCH  15  16
ENDBRANCH  12  15
ENDBRANCH   7  12
ENDBRANCH   1   7
BRANCH   3  25
ATOM     25  C16 UNL     1      -1.173   4.666   1.294  1.00  0.00     0.187 C   
BRANCH  25  26
ATOM     26  C17 UNL     1       0.274   4.729   0.941  1.00  0.00     0.049 A   
ATOM     27  C18 UNL     1       0.892   5.012  -0.262  1.00  0.00     0.044 A   
ATOM     28  N4  UNL     1       1.295   4.468   1.824  1.00  0.00    -0.231 N   
ATOM     29  C19 UNL     1       2.261   4.809  -0.025  1.00  0.00     0.133 A   
ATOM     30  N3  UNL     1       2.499   4.412   1.226  1.00  0.00    -0.190 NA  
ATOM     31  C20 UNL     1       1.220   4.204   3.244  1.00  0.00     0.159 C   
ENDBRANCH  25  26
ENDBRANCH   3  25
TORSDOF 8
