REMARK SMILES CCn1nc(C)c(CCn2cc([C@H](CC(C)C)[NH2+]Cc3ccc4c(c3)OCO4)nn2)c1C
REMARK SMILES IDX 10 1 11 2 12 3 29 4 30 5 9 7 8 8 7 9 3 10 4 11 31 12 5 13
REMARK SMILES IDX 32 14 6 15 2 16 1 17 13 18 14 19 15 20 16 21 17 22 18 23
REMARK SMILES IDX 19 26 20 27 21 28 25 29 22 30 24 31 23 32 26 33 28 34 27 35
REMARK H PARENT 11 6 18 24 18 25
ROOT
ATOM     1   N3  UNL     1       3.512  -0.095   0.730  1.00  0.00    -0.212 N   
ATOM     2   C8  UNL     1       2.866  -1.003  -0.070  1.00  0.00     0.045 A   
ATOM     3   C9  UNL     1       2.238  -0.213  -1.007  1.00  0.00     0.127 A   
ATOM     4   N5  UNL     1       2.663   1.083  -0.861  1.00  0.00    -0.132 NA  
ATOM     5   N6  UNL     1       3.465   1.137   0.191  1.00  0.00    -0.076 NA  
ATOM     6   H13 UNL     1       2.773  -2.045   0.201  1.00  0.00     0.083 HD  
ENDROOT
BRANCH   1   7
ATOM     7   C7  UNL     1       3.853  -0.273   2.130  1.00  0.00     0.139 C   
BRANCH   7   8
ATOM     8   C6  UNL     1       2.735   0.216   3.073  1.00  0.00     0.060 C   
BRANCH   8   9
ATOM     9   C5  UNL     1       1.377  -0.270   2.654  1.00  0.00    -0.005 A   
ATOM     10  N1  UNL     1      -0.356  -1.503   2.103  1.00  0.00    -0.230 N   
ATOM     11  N2  UNL     1      -0.543  -0.341   1.431  1.00  0.00    -0.186 NA  
ATOM     12  C23 UNL     1       0.848  -1.546   2.760  1.00  0.00     0.030 A   
ATOM     13  C3  UNL     1       0.370   0.477   1.978  1.00  0.00     0.060 A   
ATOM     14  C24 UNL     1       1.371  -2.766   3.430  1.00  0.00     0.064 C   
ATOM     15  C4  UNL     1       0.307   1.942   1.736  1.00  0.00     0.069 C   
BRANCH  10  16
ATOM     16  C2  UNL     1      -1.367  -2.543   2.016  1.00  0.00     0.129 C   
ATOM     17  C1  UNL     1      -2.497  -2.316   3.004  1.00  0.00     0.027 C   
ENDBRANCH  10  16
ENDBRANCH   8   9
ENDBRANCH   7   8
ENDBRANCH   1   7
BRANCH   3  18
ATOM     18  C10 UNL     1       1.113  -0.530  -1.936  1.00  0.00     0.114 C   
BRANCH  18  19
ATOM     19  C11 UNL     1       1.383  -0.103  -3.392  1.00  0.00     0.064 C   
BRANCH  19  20
ATOM     20  C12 UNL     1       2.507  -0.843  -4.155  1.00  0.00    -0.012 C   
ATOM     21  C13 UNL     1       2.360  -2.363  -4.097  1.00  0.00     0.007 C   
ATOM     22  C14 UNL     1       3.917  -0.421  -3.742  1.00  0.00     0.007 C   
ENDBRANCH  19  20
ENDBRANCH  18  19
BRANCH  18  23
ATOM     23  N4  UNL     1      -0.104   0.193  -1.403  1.00  0.00     0.249 N   
ATOM     24  H24 UNL     1      -0.248  -0.099  -0.409  1.00  0.00     0.199 HD  
ATOM     25  H25 UNL     1       0.130   1.188  -1.310  1.00  0.00     0.199 HD  
BRANCH  23  26
ATOM     26  C15 UNL     1      -1.399   0.030  -2.099  1.00  0.00     0.164 C   
BRANCH  26  27
ATOM     27  C16 UNL     1      -2.526   0.650  -1.320  1.00  0.00    -0.002 A   
ATOM     28  C17 UNL     1      -2.708   2.055  -1.317  1.00  0.00     0.012 A   
ATOM     29  C21 UNL     1      -3.378  -0.158  -0.548  1.00  0.00     0.045 A   
ATOM     30  C18 UNL     1      -3.721   2.646  -0.554  1.00  0.00     0.037 A   
ATOM     31  C20 UNL     1      -4.363   0.456   0.196  1.00  0.00     0.109 A   
ATOM     32  C19 UNL     1      -4.529   1.819   0.194  1.00  0.00     0.108 A   
ATOM     33  O1  UNL     1      -5.257  -0.177   0.999  1.00  0.00    -0.316 OA  
ATOM     34  O2  UNL     1      -5.552   2.217   0.995  1.00  0.00    -0.316 OA  
ATOM     35  C22 UNL     1      -6.018   0.947   1.498  1.00  0.00     0.337 C   
ENDBRANCH  26  27
ENDBRANCH  23  26
ENDBRANCH  18  23
ENDBRANCH   3  18
TORSDOF 10
