REMARK SMILES COc1ccccc1[C@H](O)Cn1cc([C@@H]([NH2+]Cc2ccc3c(c2)OCO3)C2CCCCC2)nn1
REMARK SMILES IDX 12 1 13 2 14 3 33 4 34 5 11 7 9 8 8 9 3 10 4 11 5 12 7 13
REMARK SMILES IDX 6 14 2 15 1 16 10 17 15 19 16 20 17 23 18 24 19 25 23 26
REMARK SMILES IDX 20 27 22 28 21 29 24 30 26 31 25 32 27 33 28 34 32 35 29 36
REMARK SMILES IDX 31 37 30 38
REMARK H PARENT 13 6 10 18 16 21 16 22
ROOT
ATOM     1   N1  UNL     1      -2.407   1.086   1.909  1.00  0.00    -0.209 N   
ATOM     2   C10 UNL     1      -2.147   0.371   0.775  1.00  0.00     0.045 A   
ATOM     3   C11 UNL     1      -1.787  -0.874   1.240  1.00  0.00     0.127 A   
ATOM     4   N3  UNL     1      -1.811  -0.862   2.613  1.00  0.00    -0.132 NA  
ATOM     5   N4  UNL     1      -2.188   0.341   3.010  1.00  0.00    -0.076 NA  
ATOM     6   H12 UNL     1      -2.241   0.798  -0.214  1.00  0.00     0.083 HD  
ENDROOT
BRANCH   1   7
ATOM     7   C9  UNL     1      -2.939   2.427   2.029  1.00  0.00     0.170 C   
BRANCH   7   8
ATOM     8   C8  UNL     1      -1.854   3.513   2.090  1.00  0.00     0.166 C   
BRANCH   8   9
ATOM     9   C7  UNL     1      -1.036   3.622   0.811  1.00  0.00     0.012 A   
ATOM     10  C2  UNL     1      -1.614   4.129  -0.371  1.00  0.00     0.080 A   
ATOM     11  C3  UNL     1      -0.856   4.213  -1.545  1.00  0.00     0.034 A   
ATOM     12  C4  UNL     1       0.483   3.824  -1.548  1.00  0.00     0.003 A   
ATOM     13  C6  UNL     1       0.315   3.232   0.785  1.00  0.00     0.009 A   
ATOM     14  C5  UNL     1       1.068   3.341  -0.383  1.00  0.00     0.001 A   
BRANCH  10  15
ATOM     15  O1  UNL     1      -2.936   4.485  -0.293  1.00  0.00    -0.349 OA  
ATOM     16  C1  UNL     1      -3.382   5.450  -1.245  1.00  0.00     0.203 C   
ENDBRANCH  10  15
ENDBRANCH   8   9
BRANCH   8  17
ATOM     17  O2  UNL     1      -0.995   3.352   3.228  1.00  0.00    -0.387 OA  
ATOM     18  H9  UNL     1      -1.439   2.797   3.895  1.00  0.00     0.211 HD  
ENDBRANCH   8  17
ENDBRANCH   7   8
ENDBRANCH   1   7
BRANCH   3  19
ATOM     19  C12 UNL     1      -1.347  -2.120   0.530  1.00  0.00     0.117 C   
BRANCH  19  20
ATOM     20  N2  UNL     1      -0.466  -2.899   1.496  1.00  0.00     0.249 N   
ATOM     21  H14 UNL     1      -0.433  -2.332   2.361  1.00  0.00     0.199 HD  
ATOM     22  H15 UNL     1      -0.929  -3.762   1.791  1.00  0.00     0.199 HD  
BRANCH  20  23
ATOM     23  C13 UNL     1       0.929  -3.174   1.072  1.00  0.00     0.164 C   
BRANCH  23  24
ATOM     24  C14 UNL     1       1.760  -1.944   0.844  1.00  0.00    -0.002 A   
ATOM     25  C15 UNL     1       2.048  -1.056   1.910  1.00  0.00     0.012 A   
ATOM     26  C19 UNL     1       2.281  -1.679  -0.435  1.00  0.00     0.045 A   
ATOM     27  C16 UNL     1       2.849   0.074   1.710  1.00  0.00     0.037 A   
ATOM     28  C18 UNL     1       3.072  -0.560  -0.595  1.00  0.00     0.109 A   
ATOM     29  C17 UNL     1       3.353   0.289   0.447  1.00  0.00     0.108 A   
ATOM     30  O3  UNL     1       3.664  -0.172  -1.757  1.00  0.00    -0.316 OA  
ATOM     31  O4  UNL     1       4.159   1.318   0.073  1.00  0.00    -0.316 OA  
ATOM     32  C20 UNL     1       4.401   0.990  -1.312  1.00  0.00     0.337 C   
ENDBRANCH  23  24
ENDBRANCH  20  23
ENDBRANCH  19  20
BRANCH  19  33
ATOM     33  C21 UNL     1      -2.535  -3.027   0.085  1.00  0.00     0.043 C   
ATOM     34  C22 UNL     1      -3.525  -2.316  -0.864  1.00  0.00     0.010 C   
ATOM     35  C26 UNL     1      -2.083  -4.335  -0.604  1.00  0.00     0.010 C   
ATOM     36  C23 UNL     1      -2.922  -2.034  -2.238  1.00  0.00     0.001 C   
ATOM     37  C25 UNL     1      -1.471  -4.097  -1.985  1.00  0.00     0.001 C   
ATOM     38  C24 UNL     1      -2.409  -3.310  -2.896  1.00  0.00     0.000 C   
ENDBRANCH  19  33
ENDBRANCH   3  19
TORSDOF 10
