REMARK SMILES Cc1cc(-n2cc([C@H](CC(C)C)[NH2+]Cc3ccc4c(c3)OCO4)nn2)ccc1O
REMARK SMILES IDX 5 1 6 2 7 3 24 4 25 5 4 6 2 7 3 8 28 9 27 10 26 11 1 12
REMARK SMILES IDX 29 13 8 15 9 16 10 17 11 18 12 19 13 20 14 23 15 24 16 25
REMARK SMILES IDX 20 26 17 27 19 28 18 29 21 30 23 31 22 32
REMARK H PARENT 29 14 13 21 13 22
ROOT
ATOM     1   N1  UNL     1       1.974   0.233  -0.808  1.00  0.00    -0.181 N   
ATOM     2   C5  UNL     1       0.826  -0.414  -0.392  1.00  0.00     0.135 A   
ATOM     3   C6  UNL     1       0.262  -0.911  -1.546  1.00  0.00     0.127 A   
ATOM     4   N3  UNL     1       1.077  -0.627  -2.603  1.00  0.00    -0.131 NA  
ATOM     5   N4  UNL     1       2.114   0.054  -2.148  1.00  0.00    -0.071 NA  
ENDROOT
BRANCH   1   6
ATOM     6   C4  UNL     1       2.876   1.024  -0.056  1.00  0.00     0.058 A   
ATOM     7   C2  UNL     1       3.586   2.022   2.061  1.00  0.00    -0.019 A   
ATOM     8   C3  UNL     1       2.703   1.209   1.326  1.00  0.00     0.032 A   
ATOM     9   C22 UNL     1       4.640   2.644   1.384  1.00  0.00     0.074 A   
ATOM     10  C21 UNL     1       4.819   2.464   0.015  1.00  0.00     0.035 A   
ATOM     11  C20 UNL     1       3.944   1.655  -0.707  1.00  0.00     0.028 A   
ATOM     12  C1  UNL     1       3.374   2.198   3.539  1.00  0.00     0.047 C   
BRANCH   9  13
ATOM     13  O3  UNL     1       5.544   3.457   2.002  1.00  0.00    -0.361 OA  
ATOM     14  H27 UNL     1       5.398   3.451   2.961  1.00  0.00     0.218 HD  
ENDBRANCH   9  13
ENDBRANCH   1   6
BRANCH   3  15
ATOM     15  C7  UNL     1      -1.063  -1.547  -1.804  1.00  0.00     0.114 C   
BRANCH  15  16
ATOM     16  C8  UNL     1      -0.944  -3.046  -2.143  1.00  0.00     0.064 C   
BRANCH  16  17
ATOM     17  C9  UNL     1      -0.340  -3.921  -1.024  1.00  0.00    -0.012 C   
ATOM     18  C10 UNL     1      -1.158  -3.865   0.268  1.00  0.00     0.007 C   
ATOM     19  C11 UNL     1      -0.231  -5.372  -1.502  1.00  0.00     0.007 C   
ENDBRANCH  16  17
ENDBRANCH  15  16
BRANCH  15  20
ATOM     20  N2  UNL     1      -1.710  -0.859  -2.997  1.00  0.00     0.249 N   
ATOM     21  H16 UNL     1      -0.932  -0.528  -3.592  1.00  0.00     0.199 HD  
ATOM     22  H17 UNL     1      -2.223  -1.539  -3.568  1.00  0.00     0.199 HD  
BRANCH  20  23
ATOM     23  C12 UNL     1      -2.609   0.299  -2.708  1.00  0.00     0.164 C   
BRANCH  23  24
ATOM     24  C13 UNL     1      -1.996   1.374  -1.850  1.00  0.00    -0.002 A   
ATOM     25  C14 UNL     1      -2.436   1.556  -0.516  1.00  0.00     0.012 A   
ATOM     26  C18 UNL     1      -0.948   2.170  -2.343  1.00  0.00     0.045 A   
ATOM     27  C15 UNL     1      -1.820   2.488   0.326  1.00  0.00     0.037 A   
ATOM     28  C17 UNL     1      -0.356   3.073  -1.482  1.00  0.00     0.109 A   
ATOM     29  C16 UNL     1      -0.774   3.222  -0.184  1.00  0.00     0.108 A   
ATOM     30  O1  UNL     1       0.698   3.876  -1.782  1.00  0.00    -0.316 OA  
ATOM     31  O2  UNL     1      -0.038   4.137   0.497  1.00  0.00    -0.316 OA  
ATOM     32  C19 UNL     1       0.891   4.561  -0.524  1.00  0.00     0.337 C   
ENDBRANCH  23  24
ENDBRANCH  20  23
ENDBRANCH  15  20
ENDBRANCH   3  15
TORSDOF 8
