REMARK SMILES Cc1nc(Cn2cc([C@@H]([NH2+]Cc3ccc4c(c3)OCO4)C(C)(C)C)nn2)cs1
REMARK SMILES IDX 6 1 7 2 8 3 25 4 26 5 5 7 4 8 2 9 3 10 28 11 27 12 1 13 9 14
REMARK SMILES IDX 10 15 11 18 12 19 13 20 17 21 14 22 16 23 15 24 18 25 20 26
REMARK SMILES IDX 19 27 21 28 22 29 23 30 24 31
REMARK H PARENT 7 6 10 16 10 17
ROOT
ATOM     1   N2  UNL     1       1.986   1.977   0.320  1.00  0.00    -0.206 N   
ATOM     2   C5  UNL     1       1.277   1.074   1.065  1.00  0.00     0.046 A   
ATOM     3   C6  UNL     1       1.480  -0.124   0.420  1.00  0.00     0.127 A   
ATOM     4   N4  UNL     1       2.321   0.075  -0.646  1.00  0.00    -0.132 NA  
ATOM     5   N5  UNL     1       2.624   1.363  -0.697  1.00  0.00    -0.076 NA  
ATOM     6   H6  UNL     1       0.667   1.377   1.906  1.00  0.00     0.083 HD  
ENDROOT
BRANCH   1   7
ATOM     7   C4  UNL     1       2.044   3.418   0.480  1.00  0.00     0.190 C   
BRANCH   7   8
ATOM     8   C3  UNL     1       0.800   4.035  -0.070  1.00  0.00     0.067 A   
ATOM     9   C2  UNL     1      -1.386   4.433  -0.038  1.00  0.00     0.075 A   
ATOM     10  N1  UNL     1      -0.410   3.792   0.572  1.00  0.00    -0.249 NA  
ATOM     11  S1  UNL     1      -0.922   5.330  -1.426  1.00  0.00    -0.081 S   
ATOM     12  C20 UNL     1       0.704   4.850  -1.182  1.00  0.00     0.072 A   
ATOM     13  C1  UNL     1      -2.809   4.418   0.399  1.00  0.00     0.075 C   
ENDBRANCH   7   8
ENDBRANCH   1   7
BRANCH   3  14
ATOM     14  C7  UNL     1       0.849  -1.464   0.633  1.00  0.00     0.120 C   
BRANCH  14  15
ATOM     15  N3  UNL     1       0.466  -2.053  -0.713  1.00  0.00     0.250 N   
ATOM     16  H8  UNL     1       0.140  -3.015  -0.609  1.00  0.00     0.199 HD  
ATOM     17  H9  UNL     1       1.326  -2.072  -1.275  1.00  0.00     0.199 HD  
BRANCH  15  18
ATOM     18  C8  UNL     1      -0.547  -1.292  -1.510  1.00  0.00     0.164 C   
BRANCH  18  19
ATOM     19  C9  UNL     1      -1.890  -1.200  -0.841  1.00  0.00    -0.002 A   
ATOM     20  C10 UNL     1      -2.729  -2.337  -0.758  1.00  0.00     0.012 A   
ATOM     21  C14 UNL     1      -2.311   0.015  -0.271  1.00  0.00     0.045 A   
ATOM     22  C11 UNL     1      -3.968  -2.269  -0.112  1.00  0.00     0.037 A   
ATOM     23  C13 UNL     1      -3.538   0.048   0.358  1.00  0.00     0.109 A   
ATOM     24  C12 UNL     1      -4.342  -1.062   0.436  1.00  0.00     0.108 A   
ATOM     25  O1  UNL     1      -4.091   1.133   0.960  1.00  0.00    -0.316 OA  
ATOM     26  O2  UNL     1      -5.503  -0.816   1.096  1.00  0.00    -0.316 OA  
ATOM     27  C15 UNL     1      -5.354   0.587   1.403  1.00  0.00     0.337 C   
ENDBRANCH  18  19
ENDBRANCH  15  18
ENDBRANCH  14  15
BRANCH  14  28
ATOM     28  C16 UNL     1       1.740  -2.474   1.440  1.00  0.00     0.010 C   
ATOM     29  C17 UNL     1       0.961  -3.781   1.714  1.00  0.00     0.017 C   
ATOM     30  C18 UNL     1       2.104  -1.869   2.816  1.00  0.00     0.017 C   
ATOM     31  C19 UNL     1       3.049  -2.838   0.712  1.00  0.00     0.017 C   
ENDBRANCH  14  28
ENDBRANCH   3  14
TORSDOF 7
