REMARK SMILES O[C@@H](Cn1cc([C@@H]([NH2+]Cc2ccc3c(c2)OCO3)C2CCCCC2)nn1)c1ccccc1
REMARK SMILES IDX 4 1 5 2 6 3 25 4 26 5 3 7 2 8 1 9 27 11 28 12 32 13 29 14
REMARK SMILES IDX 31 15 30 16 7 17 8 18 9 21 10 22 11 23 15 24 12 25 14 26
REMARK SMILES IDX 13 27 16 28 18 29 17 30 19 31 20 32 24 33 21 34 23 35 22 36
REMARK H PARENT 5 6 1 10 8 19 8 20
ROOT
ATOM     1   N1  UNL     1      -1.670   0.494  -1.672  1.00  0.00    -0.209 N   
ATOM     2   C3  UNL     1      -0.848   1.352  -0.997  1.00  0.00     0.045 A   
ATOM     3   C4  UNL     1       0.018   0.524  -0.323  1.00  0.00     0.127 A   
ATOM     4   N3  UNL     1      -0.325  -0.779  -0.571  1.00  0.00    -0.132 NA  
ATOM     5   N4  UNL     1      -1.360  -0.784  -1.393  1.00  0.00    -0.076 NA  
ATOM     6   H5  UNL     1      -0.949   2.425  -1.075  1.00  0.00     0.083 HD  
ENDROOT
BRANCH   1   7
ATOM     7   C2  UNL     1      -2.799   0.811  -2.524  1.00  0.00     0.170 C   
BRANCH   7   8
ATOM     8   C1  UNL     1      -2.349   1.313  -3.900  1.00  0.00     0.164 C   
BRANCH   8   9
ATOM     9   O1  UNL     1      -1.776   2.622  -3.773  1.00  0.00    -0.387 OA  
ATOM     10  H1  UNL     1      -1.920   3.085  -4.622  1.00  0.00     0.211 HD  
ENDBRANCH   8   9
BRANCH   8  11
ATOM     11  C20 UNL     1      -3.497   1.372  -4.885  1.00  0.00    -0.018 A   
ATOM     12  C21 UNL     1      -4.588   2.232  -4.675  1.00  0.00     0.006 A   
ATOM     13  C25 UNL     1      -3.484   0.567  -6.035  1.00  0.00     0.006 A   
ATOM     14  C22 UNL     1      -5.641   2.279  -5.590  1.00  0.00     0.000 A   
ATOM     15  C24 UNL     1      -4.535   0.624  -6.953  1.00  0.00     0.000 A   
ATOM     16  C23 UNL     1      -5.612   1.477  -6.731  1.00  0.00     0.000 A   
ENDBRANCH   8  11
ENDBRANCH   7   8
ENDBRANCH   1   7
BRANCH   3  17
ATOM     17  C5  UNL     1       1.143   0.821   0.615  1.00  0.00     0.117 C   
BRANCH  17  18
ATOM     18  N2  UNL     1       1.203  -0.230   1.691  1.00  0.00     0.249 N   
ATOM     19  H7  UNL     1       1.094  -1.141   1.222  1.00  0.00     0.199 HD  
ATOM     20  H8  UNL     1       2.113  -0.257   2.158  1.00  0.00     0.199 HD  
BRANCH  18  21
ATOM     21  C6  UNL     1       0.137  -0.134   2.726  1.00  0.00     0.164 C   
BRANCH  21  22
ATOM     22  C7  UNL     1       0.293  -1.221   3.751  1.00  0.00    -0.002 A   
ATOM     23  C8  UNL     1       1.002  -0.980   4.953  1.00  0.00     0.012 A   
ATOM     24  C12 UNL     1      -0.227  -2.502   3.496  1.00  0.00     0.045 A   
ATOM     25  C9  UNL     1       1.177  -1.996   5.900  1.00  0.00     0.037 A   
ATOM     26  C11 UNL     1      -0.035  -3.481   4.450  1.00  0.00     0.109 A   
ATOM     27  C10 UNL     1       0.645  -3.236   5.618  1.00  0.00     0.108 A   
ATOM     28  O2  UNL     1      -0.472  -4.764   4.363  1.00  0.00    -0.316 OA  
ATOM     29  O3  UNL     1       0.709  -4.330   6.419  1.00  0.00    -0.316 OA  
ATOM     30  C13 UNL     1      -0.013  -5.298   5.626  1.00  0.00     0.337 C   
ENDBRANCH  21  22
ENDBRANCH  18  21
ENDBRANCH  17  18
BRANCH  17  31
ATOM     31  C14 UNL     1       2.511   0.935  -0.112  1.00  0.00     0.043 C   
ATOM     32  C15 UNL     1       3.005  -0.390  -0.729  1.00  0.00     0.010 C   
ATOM     33  C19 UNL     1       3.594   1.536   0.809  1.00  0.00     0.010 C   
ATOM     34  C16 UNL     1       4.347  -0.220  -1.436  1.00  0.00     0.001 C   
ATOM     35  C18 UNL     1       4.936   1.690   0.093  1.00  0.00     0.001 C   
ATOM     36  C17 UNL     1       5.404   0.370  -0.509  1.00  0.00     0.000 C   
ENDBRANCH  17  31
ENDBRANCH   3  17
TORSDOF 9
