REMARK SMILES O[C@H](Cn1cc([C@@H]([NH2+]Cc2ccc3c(c2)OCO3)C2CCCCC2)nn1)c1ccccc1
REMARK SMILES IDX 4 1 5 2 6 3 25 4 26 5 3 7 2 8 1 9 27 11 28 12 32 13 29 14
REMARK SMILES IDX 31 15 30 16 7 17 8 18 9 21 10 22 11 23 15 24 12 25 14 26
REMARK SMILES IDX 13 27 16 28 18 29 17 30 19 31 20 32 24 33 21 34 23 35 22 36
REMARK H PARENT 5 6 1 10 8 19 8 20
ROOT
ATOM     1   N1  UNL     1       2.757  -0.398   0.762  1.00  0.00    -0.209 N   
ATOM     2   C3  UNL     1       1.428  -0.109   0.899  1.00  0.00     0.045 A   
ATOM     3   C4  UNL     1       1.005   0.129  -0.388  1.00  0.00     0.127 A   
ATOM     4   N3  UNL     1       2.081   0.038  -1.237  1.00  0.00    -0.132 NA  
ATOM     5   N4  UNL     1       3.148  -0.273  -0.519  1.00  0.00    -0.076 NA  
ATOM     6   H5  UNL     1       0.923  -0.141   1.855  1.00  0.00     0.083 HD  
ENDROOT
BRANCH   1   7
ATOM     7   C2  UNL     1       3.691  -0.806   1.786  1.00  0.00     0.170 C   
BRANCH   7   8
ATOM     8   C1  UNL     1       4.043  -2.294   1.712  1.00  0.00     0.164 C   
BRANCH   8   9
ATOM     9   O1  UNL     1       4.970  -2.595   2.758  1.00  0.00    -0.387 OA  
ATOM     10  H1  UNL     1       5.022  -3.566   2.827  1.00  0.00     0.211 HD  
ENDBRANCH   8   9
BRANCH   8  11
ATOM     11  C20 UNL     1       2.835  -3.199   1.845  1.00  0.00    -0.018 A   
ATOM     12  C21 UNL     1       2.135  -3.302   3.058  1.00  0.00     0.006 A   
ATOM     13  C25 UNL     1       2.387  -3.939   0.741  1.00  0.00     0.006 A   
ATOM     14  C22 UNL     1       1.011  -4.122   3.161  1.00  0.00     0.000 A   
ATOM     15  C24 UNL     1       1.266  -4.765   0.848  1.00  0.00     0.000 A   
ATOM     16  C23 UNL     1       0.578  -4.854   2.056  1.00  0.00     0.000 A   
ENDBRANCH   8  11
ENDBRANCH   7   8
ENDBRANCH   1   7
BRANCH   3  17
ATOM     17  C5  UNL     1      -0.338   0.485  -0.937  1.00  0.00     0.117 C   
BRANCH  17  18
ATOM     18  N2  UNL     1      -0.170   1.319  -2.190  1.00  0.00     0.249 N   
ATOM     19  H7  UNL     1       0.578   0.866  -2.734  1.00  0.00     0.199 HD  
ATOM     20  H8  UNL     1      -1.021   1.291  -2.760  1.00  0.00     0.199 HD  
BRANCH  18  21
ATOM     21  C6  UNL     1       0.236   2.739  -1.981  1.00  0.00     0.164 C   
BRANCH  21  22
ATOM     22  C7  UNL     1      -0.888   3.588  -1.456  1.00  0.00    -0.002 A   
ATOM     23  C8  UNL     1      -0.888   4.026  -0.109  1.00  0.00     0.012 A   
ATOM     24  C12 UNL     1      -1.962   3.937  -2.294  1.00  0.00     0.045 A   
ATOM     25  C9  UNL     1      -1.943   4.793   0.399  1.00  0.00     0.037 A   
ATOM     26  C11 UNL     1      -2.985   4.695  -1.761  1.00  0.00     0.109 A   
ATOM     27  C10 UNL     1      -2.977   5.110  -0.453  1.00  0.00     0.108 A   
ATOM     28  O2  UNL     1      -4.088   5.117  -2.433  1.00  0.00    -0.316 OA  
ATOM     29  O3  UNL     1      -4.071   5.848  -0.136  1.00  0.00    -0.316 OA  
ATOM     30  C13 UNL     1      -4.760   5.879  -1.404  1.00  0.00     0.337 C   
ENDBRANCH  21  22
ENDBRANCH  18  21
ENDBRANCH  17  18
BRANCH  17  31
ATOM     31  C14 UNL     1      -1.230  -0.737  -1.284  1.00  0.00     0.043 C   
ATOM     32  C15 UNL     1      -1.645  -1.519  -0.021  1.00  0.00     0.010 C   
ATOM     33  C19 UNL     1      -0.616  -1.697  -2.321  1.00  0.00     0.010 C   
ATOM     34  C16 UNL     1      -2.601  -2.661  -0.359  1.00  0.00     0.001 C   
ATOM     35  C18 UNL     1      -1.568  -2.846  -2.655  1.00  0.00     0.001 C   
ATOM     36  C17 UNL     1      -2.008  -3.600  -1.405  1.00  0.00     0.000 C   
ENDBRANCH  17  31
ENDBRANCH   3  17
TORSDOF 9
