REMARK SMILES CC(C)C[C@H]([NH2+]Cc1ccc2c(c1)OCO2)c1cn(CCc2cncs2)nn1
REMARK SMILES IDX 17 1 18 2 19 3 27 4 28 5 5 7 4 8 2 9 1 10 3 11 6 12 7 15
REMARK SMILES IDX 8 16 9 17 13 18 10 19 12 20 11 21 14 22 16 23 15 24 20 25
REMARK SMILES IDX 21 26 22 27 23 28 26 29 24 30 25 31
REMARK H PARENT 18 6 6 13 6 14
ROOT
ATOM     1   C14 UNL     1       1.706   0.856   0.718  1.00  0.00     0.127 A   
ATOM     2   C15 UNL     1       1.447   1.546  -0.446  1.00  0.00     0.045 A   
ATOM     3   N2  UNL     1       2.686   1.763  -0.981  1.00  0.00    -0.212 N   
ATOM     4   N4  UNL     1       3.649   1.264  -0.185  1.00  0.00    -0.076 NA  
ATOM     5   N5  UNL     1       3.061   0.695   0.854  1.00  0.00    -0.132 NA  
ATOM     6   H20 UNL     1       0.536   1.852  -0.941  1.00  0.00     0.083 HD  
ENDROOT
BRANCH   1   7
ATOM     7   C5  UNL     1       0.788   0.233   1.714  1.00  0.00     0.114 C   
BRANCH   7   8
ATOM     8   C4  UNL     1       0.813   0.955   3.076  1.00  0.00     0.064 C   
BRANCH   8   9
ATOM     9   C2  UNL     1       0.336   2.423   3.046  1.00  0.00    -0.012 C   
ATOM     10  C1  UNL     1       0.480   3.040   4.440  1.00  0.00     0.007 C   
ATOM     11  C3  UNL     1      -1.112   2.556   2.571  1.00  0.00     0.007 C   
ENDBRANCH   8   9
ENDBRANCH   7   8
BRANCH   7  12
ATOM     12  N1  UNL     1       1.206  -1.202   1.967  1.00  0.00     0.249 N   
ATOM     13  H11 UNL     1       0.742  -1.562   2.806  1.00  0.00     0.199 HD  
ATOM     14  H12 UNL     1       2.217  -1.179   2.165  1.00  0.00     0.199 HD  
BRANCH  12  15
ATOM     15  C6  UNL     1       0.987  -2.161   0.841  1.00  0.00     0.164 C   
BRANCH  15  16
ATOM     16  C7  UNL     1      -0.470  -2.396   0.556  1.00  0.00    -0.002 A   
ATOM     17  C8  UNL     1      -1.064  -1.855  -0.609  1.00  0.00     0.012 A   
ATOM     18  C12 UNL     1      -1.263  -3.126   1.459  1.00  0.00     0.045 A   
ATOM     19  C9  UNL     1      -2.426  -2.029  -0.872  1.00  0.00     0.037 A   
ATOM     20  C11 UNL     1      -2.603  -3.279   1.171  1.00  0.00     0.109 A   
ATOM     21  C10 UNL     1      -3.169  -2.745   0.039  1.00  0.00     0.108 A   
ATOM     22  O1  UNL     1      -3.504  -3.946   1.938  1.00  0.00    -0.316 OA  
ATOM     23  O2  UNL     1      -4.498  -3.011  -0.050  1.00  0.00    -0.316 OA  
ATOM     24  C13 UNL     1      -4.702  -3.801   1.141  1.00  0.00     0.337 C   
ENDBRANCH  15  16
ENDBRANCH  12  15
ENDBRANCH   7  12
ENDBRANCH   1   7
BRANCH   3  25
ATOM     25  C16 UNL     1       3.010   2.292  -2.291  1.00  0.00     0.139 C   
BRANCH  25  26
ATOM     26  C17 UNL     1       3.637   1.250  -3.224  1.00  0.00     0.066 C   
BRANCH  26  27
ATOM     27  C18 UNL     1       2.792   0.018  -3.357  1.00  0.00     0.011 A   
ATOM     28  C19 UNL     1       2.869  -1.157  -2.636  1.00  0.00     0.122 A   
ATOM     29  S1  UNL     1       1.511  -0.091  -4.489  1.00  0.00    -0.081 S   
ATOM     30  N3  UNL     1       1.885  -2.089  -2.897  1.00  0.00    -0.257 NA  
ATOM     31  C20 UNL     1       1.154  -1.667  -3.908  1.00  0.00     0.156 A   
ENDBRANCH  26  27
ENDBRANCH  25  26
ENDBRANCH   3  25
TORSDOF 9
