REMARK SMILES CC(C)C[C@H]([NH2+]Cc1ccc2c(c1)OCO2)c1cn(CCc2cncn2C)nn1
REMARK SMILES IDX 17 1 18 2 19 3 28 4 29 5 5 7 4 8 2 9 1 10 3 11 6 12 7 15
REMARK SMILES IDX 8 16 9 17 13 18 10 19 12 20 11 21 14 22 16 23 15 24 20 25
REMARK SMILES IDX 21 26 22 27 23 28 26 29 24 30 25 31 27 32
REMARK H PARENT 18 6 6 13 6 14
ROOT
ATOM     1   C14 UNL     1      -2.553  -1.156   0.956  1.00  0.00     0.127 A   
ATOM     2   C15 UNL     1      -1.846  -1.551   2.073  1.00  0.00     0.045 A   
ATOM     3   N2  UNL     1      -2.696  -1.272   3.112  1.00  0.00    -0.212 N   
ATOM     4   N5  UNL     1      -3.909  -0.914   2.655  1.00  0.00    -0.076 NA  
ATOM     5   N6  UNL     1      -3.831  -0.823   1.336  1.00  0.00    -0.132 NA  
ATOM     6   H20 UNL     1      -0.811  -1.815   2.236  1.00  0.00     0.083 HD  
ENDROOT
BRANCH   1   7
ATOM     7   C5  UNL     1      -2.102  -0.815  -0.435  1.00  0.00     0.114 C   
BRANCH   7   8
ATOM     8   C4  UNL     1      -0.720  -1.372  -0.808  1.00  0.00     0.064 C   
BRANCH   8   9
ATOM     9   C2  UNL     1      -0.629  -2.914  -0.866  1.00  0.00    -0.012 C   
ATOM     10  C1  UNL     1       0.813  -3.332  -1.167  1.00  0.00     0.007 C   
ATOM     11  C3  UNL     1      -1.567  -3.511  -1.917  1.00  0.00     0.007 C   
ENDBRANCH   8   9
ENDBRANCH   7   8
BRANCH   7  12
ATOM     12  N1  UNL     1      -2.094   0.696  -0.509  1.00  0.00     0.249 N   
ATOM     13  H11 UNL     1      -2.949   0.987  -0.015  1.00  0.00     0.199 HD  
ATOM     14  H12 UNL     1      -1.355   1.095   0.106  1.00  0.00     0.199 HD  
BRANCH  12  15
ATOM     15  C6  UNL     1      -2.118   1.372  -1.827  1.00  0.00     0.164 C   
BRANCH  15  16
ATOM     16  C7  UNL     1      -0.767   1.555  -2.461  1.00  0.00    -0.002 A   
ATOM     17  C8  UNL     1      -0.492   0.994  -3.732  1.00  0.00     0.012 A   
ATOM     18  C12 UNL     1       0.232   2.300  -1.807  1.00  0.00     0.045 A   
ATOM     19  C9  UNL     1       0.763   1.145  -4.330  1.00  0.00     0.037 A   
ATOM     20  C11 UNL     1       1.459   2.428  -2.423  1.00  0.00     0.109 A   
ATOM     21  C10 UNL     1       1.718   1.865  -3.648  1.00  0.00     0.108 A   
ATOM     22  O1  UNL     1       2.530   3.098  -1.922  1.00  0.00    -0.316 OA  
ATOM     23  O2  UNL     1       2.985   2.111  -4.074  1.00  0.00    -0.316 OA  
ATOM     24  C13 UNL     1       3.485   2.925  -2.993  1.00  0.00     0.337 C   
ENDBRANCH  15  16
ENDBRANCH  12  15
ENDBRANCH   7  12
ENDBRANCH   1   7
BRANCH   3  25
ATOM     25  C16 UNL     1      -2.306  -0.991   4.482  1.00  0.00     0.140 C   
BRANCH  25  26
ATOM     26  C17 UNL     1      -2.098   0.513   4.758  1.00  0.00     0.074 C   
BRANCH  26  27
ATOM     27  C18 UNL     1      -1.357   1.209   3.655  1.00  0.00     0.030 A   
ATOM     28  C19 UNL     1      -1.860   1.874   2.554  1.00  0.00     0.131 A   
ATOM     29  N4  UNL     1       0.003   1.242   3.479  1.00  0.00    -0.297 N   
ATOM     30  N3  UNL     1      -0.878   2.078   1.614  1.00  0.00    -0.248 NA  
ATOM     31  C20 UNL     1       0.242   1.765   2.236  1.00  0.00     0.188 A   
ATOM     32  C21 UNL     1       1.015   0.790   4.404  1.00  0.00     0.137 C   
ENDBRANCH  26  27
ENDBRANCH  25  26
ENDBRANCH   3  25
TORSDOF 9
