REMARK SMILES CC(C)(C)[C@H]([NH2+]Cc1ccc2c(c1)OCO2)c1cn([C@@H](CO)c2ccccc2F)nn1
REMARK SMILES IDX 17 1 18 2 19 3 30 4 31 5 5 7 2 8 1 9 3 10 4 11 6 12 7 15
REMARK SMILES IDX 8 16 9 17 13 18 10 19 12 20 11 21 14 22 16 23 15 24 20 25
REMARK SMILES IDX 21 26 22 27 23 29 24 30 28 31 25 32 27 33 26 34 29 35
REMARK H PARENT 18 6 6 13 6 14 22 28
ROOT
ATOM     1   C14 UNL     1       0.454   1.118  -0.786  1.00  0.00     0.127 A   
ATOM     2   C15 UNL     1       0.621   2.366  -0.229  1.00  0.00     0.046 A   
ATOM     3   N2  UNL     1      -0.577   2.620   0.387  1.00  0.00    -0.202 N   
ATOM     4   N3  UNL     1      -1.412   1.566   0.254  1.00  0.00    -0.075 NA  
ATOM     5   N4  UNL     1      -0.791   0.643  -0.461  1.00  0.00    -0.132 NA  
ATOM     6   H20 UNL     1       1.431   3.082  -0.226  1.00  0.00     0.083 HD  
ENDROOT
BRANCH   1   7
ATOM     7   C5  UNL     1       1.393   0.254  -1.571  1.00  0.00     0.120 C   
BRANCH   7   8
ATOM     8   C2  UNL     1       1.266   0.418  -3.127  1.00  0.00     0.010 C   
ATOM     9   C1  UNL     1       1.475   1.899  -3.525  1.00  0.00     0.017 C   
ATOM     10  C3  UNL     1       2.366  -0.398  -3.846  1.00  0.00     0.017 C   
ATOM     11  C4  UNL     1      -0.104  -0.041  -3.664  1.00  0.00     0.017 C   
ENDBRANCH   7   8
BRANCH   7  12
ATOM     12  N1  UNL     1       1.167  -1.187  -1.176  1.00  0.00     0.250 N   
ATOM     13  H11 UNL     1       1.549  -1.845  -1.859  1.00  0.00     0.199 HD  
ATOM     14  H12 UNL     1       0.146  -1.333  -1.175  1.00  0.00     0.199 HD  
BRANCH  12  15
ATOM     15  C6  UNL     1       1.660  -1.562   0.180  1.00  0.00     0.164 C   
BRANCH  15  16
ATOM     16  C7  UNL     1       1.397  -3.018   0.448  1.00  0.00    -0.002 A   
ATOM     17  C8  UNL     1       2.387  -3.989   0.165  1.00  0.00     0.012 A   
ATOM     18  C12 UNL     1       0.144  -3.428   0.935  1.00  0.00     0.045 A   
ATOM     19  C9  UNL     1       2.141  -5.350   0.378  1.00  0.00     0.037 A   
ATOM     20  C11 UNL     1      -0.065  -4.777   1.135  1.00  0.00     0.109 A   
ATOM     21  C10 UNL     1       0.905  -5.711   0.865  1.00  0.00     0.108 A   
ATOM     22  O1  UNL     1      -1.210  -5.340   1.604  1.00  0.00    -0.316 OA  
ATOM     23  O2  UNL     1       0.496  -6.978   1.134  1.00  0.00    -0.316 OA  
ATOM     24  C13 UNL     1      -0.842  -6.738   1.623  1.00  0.00     0.337 C   
ENDBRANCH  15  16
ENDBRANCH  12  15
ENDBRANCH   7  12
ENDBRANCH   1   7
BRANCH   3  25
ATOM     25  C16 UNL     1      -0.976   3.832   1.105  1.00  0.00     0.158 C   
BRANCH  25  26
ATOM     26  C17 UNL     1      -2.112   4.556   0.360  1.00  0.00     0.186 C   
BRANCH  26  27
ATOM     27  O3  UNL     1      -1.623   5.111  -0.863  1.00  0.00    -0.394 OA  
ATOM     28  H24 UNL     1      -2.370   5.572  -1.287  1.00  0.00     0.210 HD  
ENDBRANCH  26  27
ENDBRANCH  25  26
BRANCH  25  29
ATOM     29  C18 UNL     1      -1.247   3.510   2.564  1.00  0.00     0.013 A   
ATOM     30  C19 UNL     1      -2.537   3.317   3.084  1.00  0.00     0.009 A   
ATOM     31  C23 UNL     1      -0.158   3.367   3.436  1.00  0.00     0.128 A   
ATOM     32  C20 UNL     1      -2.719   3.021   4.439  1.00  0.00     0.001 A   
ATOM     33  C22 UNL     1      -0.332   3.073   4.785  1.00  0.00     0.039 A   
ATOM     34  C21 UNL     1      -1.619   2.904   5.290  1.00  0.00     0.003 A   
ATOM     35  F1  UNL     1       1.091   3.505   2.963  1.00  0.00    -0.207 F   
ENDBRANCH  25  29
ENDBRANCH   3  25
TORSDOF 9
