REMARK SMILES CC(C)(C)[C@H]([NH2+]Cc1ccc2c(c1)OCO2)c1cn([C@H](CO)c2ccccc2F)nn1
REMARK SMILES IDX 17 1 18 2 19 3 30 4 31 5 5 7 2 8 1 9 3 10 4 11 6 12 7 15
REMARK SMILES IDX 8 16 9 17 13 18 10 19 12 20 11 21 14 22 16 23 15 24 20 25
REMARK SMILES IDX 21 26 22 27 23 29 24 30 28 31 25 32 27 33 26 34 29 35
REMARK H PARENT 18 6 6 13 6 14 22 28
ROOT
ATOM     1   C14 UNL     1       0.083  -1.043  -0.685  1.00  0.00     0.127 A   
ATOM     2   C15 UNL     1      -0.944  -0.129  -0.764  1.00  0.00     0.046 A   
ATOM     3   N2  UNL     1      -1.615  -0.280   0.419  1.00  0.00    -0.202 N   
ATOM     4   N3  UNL     1      -1.044  -1.247   1.173  1.00  0.00    -0.075 NA  
ATOM     5   N4  UNL     1       0.001  -1.714   0.511  1.00  0.00    -0.132 NA  
ATOM     6   H20 UNL     1      -1.246   0.594  -1.512  1.00  0.00     0.083 HD  
ENDROOT
BRANCH   1   7
ATOM     7   C5  UNL     1       1.217  -1.351  -1.613  1.00  0.00     0.120 C   
BRANCH   7   8
ATOM     8   C2  UNL     1       0.886  -2.425  -2.709  1.00  0.00     0.010 C   
ATOM     9   C1  UNL     1       2.099  -2.614  -3.652  1.00  0.00     0.017 C   
ATOM     10  C3  UNL     1       0.511  -3.798  -2.114  1.00  0.00     0.017 C   
ATOM     11  C4  UNL     1      -0.295  -1.941  -3.584  1.00  0.00     0.017 C   
ENDBRANCH   7   8
BRANCH   7  12
ATOM     12  N1  UNL     1       2.400  -1.796  -0.767  1.00  0.00     0.250 N   
ATOM     13  H11 UNL     1       2.000  -2.042   0.154  1.00  0.00     0.199 HD  
ATOM     14  H12 UNL     1       2.808  -2.664  -1.115  1.00  0.00     0.199 HD  
BRANCH  12  15
ATOM     15  C6  UNL     1       3.476  -0.793  -0.547  1.00  0.00     0.164 C   
BRANCH  15  16
ATOM     16  C7  UNL     1       3.028   0.447   0.171  1.00  0.00    -0.002 A   
ATOM     17  C8  UNL     1       2.920   1.678  -0.524  1.00  0.00     0.012 A   
ATOM     18  C12 UNL     1       2.707   0.396   1.538  1.00  0.00     0.045 A   
ATOM     19  C9  UNL     1       2.504   2.840   0.130  1.00  0.00     0.037 A   
ATOM     20  C11 UNL     1       2.308   1.563   2.156  1.00  0.00     0.109 A   
ATOM     21  C10 UNL     1       2.210   2.751   1.472  1.00  0.00     0.108 A   
ATOM     22  O1  UNL     1       1.982   1.688   3.470  1.00  0.00    -0.316 OA  
ATOM     23  O2  UNL     1       1.812   3.777   2.272  1.00  0.00    -0.316 OA  
ATOM     24  C13 UNL     1       1.704   3.107   3.547  1.00  0.00     0.337 C   
ENDBRANCH  15  16
ENDBRANCH  12  15
ENDBRANCH   7  12
ENDBRANCH   1   7
BRANCH   3  25
ATOM     25  C16 UNL     1      -2.815   0.411   0.895  1.00  0.00     0.158 C   
BRANCH  25  26
ATOM     26  C17 UNL     1      -4.084  -0.258   0.327  1.00  0.00     0.186 C   
BRANCH  26  27
ATOM     27  O3  UNL     1      -4.129  -0.251  -1.103  1.00  0.00    -0.394 OA  
ATOM     28  H24 UNL     1      -4.983  -0.641  -1.361  1.00  0.00     0.210 HD  
ENDBRANCH  26  27
ENDBRANCH  25  26
BRANCH  25  29
ATOM     29  C18 UNL     1      -2.685   1.919   0.722  1.00  0.00     0.013 A   
ATOM     30  C19 UNL     1      -3.335   2.652  -0.282  1.00  0.00     0.009 A   
ATOM     31  C23 UNL     1      -1.859   2.626   1.613  1.00  0.00     0.128 A   
ATOM     32  C20 UNL     1      -3.172   4.040  -0.377  1.00  0.00     0.001 A   
ATOM     33  C22 UNL     1      -1.691   4.005   1.521  1.00  0.00     0.039 A   
ATOM     34  C21 UNL     1      -2.348   4.716   0.522  1.00  0.00     0.003 A   
ATOM     35  F1  UNL     1      -1.212   1.964   2.582  1.00  0.00    -0.207 F   
ENDBRANCH  25  29
ENDBRANCH   3  25
TORSDOF 9
