REMARK SMILES CCn1c(-n2cc([C@H](CC(C)C)[NH2+]Cc3ccc4c(c3)OCO4)nn2)nc2ccccc21
REMARK SMILES IDX 5 1 6 2 7 3 24 4 25 5 4 6 3 7 32 8 26 9 27 10 31 11 28 12
REMARK SMILES IDX 30 13 29 14 2 15 1 16 8 17 9 18 10 19 11 20 12 21 13 22
REMARK SMILES IDX 14 25 15 26 16 27 20 28 17 29 19 30 18 31 21 32 23 33 22 34
REMARK H PARENT 13 23 13 24
ROOT
ATOM     1   N2  UNL     1      -1.433   0.797  -0.454  1.00  0.00    -0.149 N   
ATOM     2   C4  UNL     1      -1.351  -0.574  -0.596  1.00  0.00     0.138 A   
ATOM     3   C5  UNL     1      -0.106  -0.907  -0.118  1.00  0.00     0.127 A   
ATOM     4   N4  UNL     1       0.543   0.236   0.266  1.00  0.00    -0.131 NA  
ATOM     5   N5  UNL     1      -0.269   1.262   0.054  1.00  0.00    -0.068 NA  
ENDROOT
BRANCH   1   6
ATOM     6   C3  UNL     1      -2.483   1.635  -0.803  1.00  0.00     0.215 A   
ATOM     7   N1  UNL     1      -2.572   2.999  -0.630  1.00  0.00    -0.270 N   
ATOM     8   C24 UNL     1      -3.777   3.405  -1.175  1.00  0.00     0.061 A   
ATOM     9   N6  UNL     1      -3.562   1.150  -1.387  1.00  0.00    -0.215 NA  
ATOM     10  C19 UNL     1      -4.371   2.230  -1.626  1.00  0.00     0.088 A   
ATOM     11  C23 UNL     1      -4.395   4.655  -1.309  1.00  0.00     0.026 A   
ATOM     12  C20 UNL     1      -5.635   2.279  -2.234  1.00  0.00     0.030 A   
ATOM     13  C22 UNL     1      -5.655   4.686  -1.918  1.00  0.00     0.002 A   
ATOM     14  C21 UNL     1      -6.268   3.518  -2.372  1.00  0.00     0.002 A   
BRANCH   7  15
ATOM     15  C2  UNL     1      -1.639   3.898   0.027  1.00  0.00     0.111 C   
ATOM     16  C1  UNL     1      -0.593   4.452  -0.925  1.00  0.00     0.025 C   
ENDBRANCH   7  15
ENDBRANCH   1   6
BRANCH   3  17
ATOM     17  C6  UNL     1       0.590  -2.224  -0.027  1.00  0.00     0.114 C   
BRANCH  17  18
ATOM     18  C7  UNL     1       0.605  -2.789   1.406  1.00  0.00     0.064 C   
BRANCH  18  19
ATOM     19  C8  UNL     1      -0.783  -3.105   2.003  1.00  0.00    -0.012 C   
ATOM     20  C9  UNL     1      -0.623  -3.587   3.448  1.00  0.00     0.007 C   
ATOM     21  C10 UNL     1      -1.542  -4.155   1.191  1.00  0.00     0.007 C   
ENDBRANCH  18  19
ENDBRANCH  17  18
BRANCH  17  22
ATOM     22  N3  UNL     1       2.031  -2.070  -0.453  1.00  0.00     0.249 N   
ATOM     23  H17 UNL     1       2.597  -2.867  -0.143  1.00  0.00     0.199 HD  
ATOM     24  H18 UNL     1       2.406  -1.244   0.037  1.00  0.00     0.199 HD  
BRANCH  22  25
ATOM     25  C11 UNL     1       2.245  -1.870  -1.913  1.00  0.00     0.164 C   
BRANCH  25  26
ATOM     26  C12 UNL     1       3.704  -1.659  -2.205  1.00  0.00    -0.002 A   
ATOM     27  C13 UNL     1       4.535  -2.756  -2.535  1.00  0.00     0.012 A   
ATOM     28  C17 UNL     1       4.261  -0.373  -2.099  1.00  0.00     0.045 A   
ATOM     29  C14 UNL     1       5.902  -2.574  -2.771  1.00  0.00     0.037 A   
ATOM     30  C16 UNL     1       5.612  -0.230  -2.338  1.00  0.00     0.109 A   
ATOM     31  C15 UNL     1       6.410  -1.298  -2.665  1.00  0.00     0.108 A   
ATOM     32  O1  UNL     1       6.306   0.937  -2.281  1.00  0.00    -0.316 OA  
ATOM     33  O2  UNL     1       7.705  -0.939  -2.857  1.00  0.00    -0.316 OA  
ATOM     34  C18 UNL     1       7.633   0.486  -2.635  1.00  0.00     0.337 C   
ENDBRANCH  25  26
ENDBRANCH  22  25
ENDBRANCH  17  22
ENDBRANCH   3  17
TORSDOF 8
