REMARK SMILES Cc1ccc2c(n1)OCC[C@H]2n1cc([C@@H]([NH2+]Cc2ccc3c(c2)OCO3)C2CCCCC2)nn1
REMARK SMILES IDX 15 1 14 2 12 3 13 4 34 5 33 6 11 8 2 9 3 10 7 11 4 12 6 13
REMARK SMILES IDX 5 14 8 15 9 16 10 17 1 18 16 19 17 22 18 23 19 24 23 25
REMARK SMILES IDX 20 26 22 27 21 28 24 29 26 30 25 31 27 32 28 33 32 34 29 35
REMARK SMILES IDX 31 36 30 37
REMARK H PARENT 13 7 16 20 16 21
ROOT
ATOM     1   C12 UNL     1       2.175  -1.054  -0.065  1.00  0.00     0.117 C   
ENDROOT
BRANCH   1   2
ATOM     2   C11 UNL     1       0.822  -1.408   0.462  1.00  0.00     0.127 A   
ATOM     3   N2  UNL     1      -1.233  -1.992   0.828  1.00  0.00    -0.204 N   
ATOM     4   C10 UNL     1      -0.297  -1.902  -0.170  1.00  0.00     0.046 A   
ATOM     5   N5  UNL     1      -0.729  -1.543   1.993  1.00  0.00    -0.075 NA  
ATOM     6   N4  UNL     1       0.529  -1.189   1.784  1.00  0.00    -0.132 NA  
ATOM     7   H11 UNL     1      -0.508  -2.194  -1.190  1.00  0.00     0.083 HD  
BRANCH   3   8
ATOM     8   C9  UNL     1      -2.609  -2.484   0.753  1.00  0.00     0.136 C   
ATOM     9   C2  UNL     1      -4.795  -0.535  -2.341  1.00  0.00     0.040 A   
ATOM     10  C3  UNL     1      -4.229   0.256  -1.347  1.00  0.00     0.024 A   
ATOM     11  N1  UNL     1      -4.697  -1.884  -2.337  1.00  0.00    -0.229 NA  
ATOM     12  C4  UNL     1      -3.515  -0.363  -0.326  1.00  0.00     0.012 A   
ATOM     13  C6  UNL     1      -4.029  -2.466  -1.324  1.00  0.00     0.172 A   
ATOM     14  C5  UNL     1      -3.385  -1.757  -0.317  1.00  0.00     0.024 A   
ATOM     15  O1  UNL     1      -4.013  -3.834  -1.377  1.00  0.00    -0.329 OA  
ATOM     16  C7  UNL     1      -3.916  -4.431  -0.085  1.00  0.00     0.172 C   
ATOM     17  C8  UNL     1      -2.615  -4.006   0.567  1.00  0.00     0.059 C   
ATOM     18  C1  UNL     1      -5.581   0.092  -3.454  1.00  0.00     0.067 C   
ENDBRANCH   3   8
ENDBRANCH   1   2
BRANCH   1  19
ATOM     19  N3  UNL     1       2.747   0.115   0.711  1.00  0.00     0.249 N   
ATOM     20  H13 UNL     1       3.754   0.198   0.538  1.00  0.00     0.199 HD  
ATOM     21  H14 UNL     1       2.623  -0.114   1.707  1.00  0.00     0.199 HD  
BRANCH  19  22
ATOM     22  C13 UNL     1       2.098   1.440   0.485  1.00  0.00     0.164 C   
BRANCH  22  23
ATOM     23  C14 UNL     1       2.395   2.014  -0.873  1.00  0.00    -0.002 A   
ATOM     24  C15 UNL     1       3.658   2.591  -1.145  1.00  0.00     0.012 A   
ATOM     25  C19 UNL     1       1.427   1.957  -1.891  1.00  0.00     0.045 A   
ATOM     26  C16 UNL     1       3.955   3.107  -2.411  1.00  0.00     0.037 A   
ATOM     27  C18 UNL     1       1.752   2.472  -3.129  1.00  0.00     0.109 A   
ATOM     28  C17 UNL     1       2.981   3.031  -3.382  1.00  0.00     0.108 A   
ATOM     29  O2  UNL     1       0.938   2.491  -4.216  1.00  0.00    -0.316 OA  
ATOM     30  O3  UNL     1       3.094   3.478  -4.658  1.00  0.00    -0.316 OA  
ATOM     31  C20 UNL     1       1.785   3.159  -5.180  1.00  0.00     0.337 C   
ENDBRANCH  22  23
ENDBRANCH  19  22
ENDBRANCH   1  19
BRANCH   1  32
ATOM     32  C21 UNL     1       3.203  -2.219  -0.015  1.00  0.00     0.043 C   
ATOM     33  C22 UNL     1       3.476  -2.766   1.401  1.00  0.00     0.010 C   
ATOM     34  C26 UNL     1       2.804  -3.370  -0.960  1.00  0.00     0.010 C   
ATOM     35  C23 UNL     1       4.522  -3.880   1.381  1.00  0.00     0.001 C   
ATOM     36  C25 UNL     1       3.857  -4.476  -0.976  1.00  0.00     0.001 C   
ATOM     37  C24 UNL     1       4.135  -5.005   0.426  1.00  0.00     0.000 C   
ENDBRANCH   1  32
TORSDOF 6
