REMARK SMILES Cn1cc(-n2cc([C@@H]([NH2+]Cc3ccc4c(c3)OCO4)C3CCCCC3)nn2)cn1
REMARK SMILES IDX 8 1 7 2 5 3 6 4 27 5 26 6 4 7 2 8 3 9 29 10 28 11 1 12 9 13
REMARK SMILES IDX 10 16 11 17 12 18 16 19 13 20 15 21 14 22 17 23 19 24 18 25
REMARK SMILES IDX 20 26 21 27 25 28 22 29 24 30 23 31
REMARK H PARENT 9 14 9 15
ROOT
ATOM     1   C6  UNL     1      -0.270  -0.792  -2.121  1.00  0.00     0.117 C   
ENDROOT
BRANCH   1   2
ATOM     2   C5  UNL     1       0.190  -0.491  -0.734  1.00  0.00     0.127 A   
ATOM     3   N2  UNL     1       0.390   0.142   1.352  1.00  0.00    -0.178 N   
ATOM     4   C4  UNL     1      -0.494  -0.435   0.459  1.00  0.00     0.135 A   
ATOM     5   N5  UNL     1       1.576   0.342   0.725  1.00  0.00    -0.071 NA  
ATOM     6   N4  UNL     1       1.455  -0.008  -0.545  1.00  0.00    -0.131 NA  
BRANCH   3   7
ATOM     7   C3  UNL     1       0.125   0.542   2.675  1.00  0.00     0.093 A   
ATOM     8   N1  UNL     1      -0.781   1.000   4.609  1.00  0.00    -0.234 N   
ATOM     9   C2  UNL     1      -1.045   0.431   3.393  1.00  0.00     0.122 A   
ATOM     10  N6  UNL     1       0.472   1.481   4.711  1.00  0.00    -0.188 NA  
ATOM     11  C21 UNL     1       1.031   1.185   3.535  1.00  0.00     0.158 A   
ATOM     12  C1  UNL     1      -1.686   1.135   5.726  1.00  0.00     0.159 C   
ENDBRANCH   3   7
ENDBRANCH   1   2
BRANCH   1  13
ATOM     13  N3  UNL     1       0.269   0.287  -3.052  1.00  0.00     0.249 N   
ATOM     14  H7  UNL     1       1.149   0.618  -2.623  1.00  0.00     0.199 HD  
ATOM     15  H8  UNL     1       0.536  -0.113  -3.957  1.00  0.00     0.199 HD  
BRANCH  13  16
ATOM     16  C7  UNL     1      -0.612   1.472  -3.290  1.00  0.00     0.164 C   
BRANCH  16  17
ATOM     17  C8  UNL     1      -1.035   2.195  -2.041  1.00  0.00    -0.002 A   
ATOM     18  C9  UNL     1      -2.373   2.109  -1.585  1.00  0.00     0.012 A   
ATOM     19  C13 UNL     1      -0.095   2.916  -1.283  1.00  0.00     0.045 A   
ATOM     20  C10 UNL     1      -2.763   2.700  -0.378  1.00  0.00     0.037 A   
ATOM     21  C12 UNL     1      -0.511   3.479  -0.093  1.00  0.00     0.109 A   
ATOM     22  C11 UNL     1      -1.805   3.368   0.351  1.00  0.00     0.108 A   
ATOM     23  O1  UNL     1       0.278   4.164   0.775  1.00  0.00    -0.316 OA  
ATOM     24  O2  UNL     1      -1.995   3.967   1.555  1.00  0.00    -0.316 OA  
ATOM     25  C14 UNL     1      -0.671   4.486   1.817  1.00  0.00     0.337 C   
ENDBRANCH  16  17
ENDBRANCH  13  16
ENDBRANCH   1  13
BRANCH   1  26
ATOM     26  C15 UNL     1       0.122  -2.184  -2.691  1.00  0.00     0.043 C   
ATOM     27  C16 UNL     1       1.633  -2.476  -2.803  1.00  0.00     0.010 C   
ATOM     28  C20 UNL     1      -0.643  -3.345  -2.023  1.00  0.00     0.010 C   
ATOM     29  C17 UNL     1       2.269  -3.108  -1.566  1.00  0.00     0.001 C   
ATOM     30  C19 UNL     1       0.029  -3.933  -0.787  1.00  0.00     0.001 C   
ATOM     31  C18 UNL     1       1.478  -4.306  -1.062  1.00  0.00     0.000 C   
ENDBRANCH   1  26
TORSDOF 6
