REMARK SMILES Cc1cc(F)ccc1[C@@H](CO)n1cc([C@@H]([NH2+]Cc2ccc3c(c2)OCO3)C(C)(C)C)nn1
REMARK SMILES IDX 12 1 13 2 14 3 31 4 32 5 9 7 8 8 2 9 3 10 4 11 7 12 6 13
REMARK SMILES IDX 1 14 5 15 10 16 11 17 15 19 16 20 17 23 18 24 19 25 23 26
REMARK SMILES IDX 20 27 22 28 21 29 24 30 26 31 25 32 27 33 28 34 29 35 30 36
REMARK H PARENT 13 6 11 18 16 21 16 22
ROOT
ATOM     1   N1  UNL     1       1.030   1.825   0.392  1.00  0.00    -0.202 N   
ATOM     2   C10 UNL     1      -0.159   1.318  -0.055  1.00  0.00     0.046 A   
ATOM     3   C11 UNL     1      -0.889   1.099   1.090  1.00  0.00     0.127 A   
ATOM     4   N3  UNL     1      -0.145   1.482   2.176  1.00  0.00    -0.132 NA  
ATOM     5   N4  UNL     1       1.025   1.921   1.740  1.00  0.00    -0.075 NA  
ATOM     6   H11 UNL     1      -0.356   1.148  -1.105  1.00  0.00     0.083 HD  
ENDROOT
BRANCH   1   7
ATOM     7   C8  UNL     1       2.232   2.163  -0.373  1.00  0.00     0.155 C   
BRANCH   7   8
ATOM     8   C7  UNL     1       2.632   0.995  -1.285  1.00  0.00    -0.020 A   
ATOM     9   C2  UNL     1       3.340  -0.127  -0.773  1.00  0.00    -0.043 A   
ATOM     10  C3  UNL     1       3.644  -1.203  -1.626  1.00  0.00     0.043 A   
ATOM     11  C4  UNL     1       3.258  -1.179  -2.959  1.00  0.00     0.123 A   
ATOM     12  C6  UNL     1       2.261   0.984  -2.647  1.00  0.00     0.009 A   
ATOM     13  C5  UNL     1       2.573  -0.095  -3.477  1.00  0.00     0.039 A   
ATOM     14  C1  UNL     1       3.791  -0.218   0.662  1.00  0.00     0.045 C   
ATOM     15  F1  UNL     1       3.548  -2.219  -3.751  1.00  0.00    -0.207 F   
ENDBRANCH   7   8
BRANCH   7  16
ATOM     16  C9  UNL     1       2.099   3.561  -1.018  1.00  0.00     0.185 C   
BRANCH  16  17
ATOM     17  O1  UNL     1       0.943   3.695  -1.846  1.00  0.00    -0.394 OA  
ATOM     18  H10 UNL     1       0.959   4.599  -2.210  1.00  0.00     0.210 HD  
ENDBRANCH  16  17
ENDBRANCH   7  16
ENDBRANCH   1   7
BRANCH   3  19
ATOM     19  C12 UNL     1      -2.225   0.453   1.273  1.00  0.00     0.120 C   
BRANCH  19  20
ATOM     20  N2  UNL     1      -2.196  -0.483   2.469  1.00  0.00     0.250 N   
ATOM     21  H13 UNL     1      -3.117  -0.897   2.618  1.00  0.00     0.199 HD  
ATOM     22  H14 UNL     1      -1.974   0.094   3.290  1.00  0.00     0.199 HD  
BRANCH  20  23
ATOM     23  C13 UNL     1      -1.182  -1.586   2.443  1.00  0.00     0.164 C   
BRANCH  23  24
ATOM     24  C14 UNL     1      -1.259  -2.462   1.224  1.00  0.00    -0.002 A   
ATOM     25  C15 UNL     1      -2.355  -3.334   1.025  1.00  0.00     0.012 A   
ATOM     26  C19 UNL     1      -0.241  -2.397   0.256  1.00  0.00     0.045 A   
ATOM     27  C16 UNL     1      -2.442  -4.124  -0.127  1.00  0.00     0.037 A   
ATOM     28  C18 UNL     1      -0.358  -3.188  -0.867  1.00  0.00     0.109 A   
ATOM     29  C17 UNL     1      -1.428  -4.027  -1.055  1.00  0.00     0.108 A   
ATOM     30  O2  UNL     1       0.529  -3.237  -1.894  1.00  0.00    -0.316 OA  
ATOM     31  O3  UNL     1      -1.346  -4.714  -2.224  1.00  0.00    -0.316 OA  
ATOM     32  C20 UNL     1      -0.090  -4.227  -2.745  1.00  0.00     0.337 C   
ENDBRANCH  23  24
ENDBRANCH  20  23
ENDBRANCH  19  20
BRANCH  19  33
ATOM     33  C21 UNL     1      -3.416   1.470   1.406  1.00  0.00     0.010 C   
ATOM     34  C22 UNL     1      -4.765   0.716   1.466  1.00  0.00     0.017 C   
ATOM     35  C23 UNL     1      -3.467   2.386   0.162  1.00  0.00     0.017 C   
ATOM     36  C24 UNL     1      -3.310   2.363   2.658  1.00  0.00     0.017 C   
ENDBRANCH  19  33
ENDBRANCH   3  19
TORSDOF 9
