REMARK SMILES Cc1cc(F)ccc1[C@H](CO)n1cc([C@@H]([NH2+]Cc2ccc3c(c2)OCO3)C(C)(C)C)nn1
REMARK SMILES IDX 12 1 13 2 14 3 31 4 32 5 9 7 8 8 2 9 3 10 4 11 7 12 6 13
REMARK SMILES IDX 1 14 5 15 10 16 11 17 15 19 16 20 17 23 18 24 19 25 23 26
REMARK SMILES IDX 20 27 22 28 21 29 24 30 26 31 25 32 27 33 28 34 29 35 30 36
REMARK H PARENT 13 6 11 18 16 21 16 22
ROOT
ATOM     1   N1  UNL     1       0.962  -0.625   1.456  1.00  0.00    -0.202 N   
ATOM     2   C10 UNL     1       0.669  -1.179   0.238  1.00  0.00     0.046 A   
ATOM     3   C11 UNL     1       1.046  -0.214  -0.668  1.00  0.00     0.127 A   
ATOM     4   N3  UNL     1       1.530   0.876   0.008  1.00  0.00    -0.132 NA  
ATOM     5   N4  UNL     1       1.483   0.612   1.302  1.00  0.00    -0.075 NA  
ATOM     6   H11 UNL     1       0.225  -2.160   0.140  1.00  0.00     0.083 HD  
ENDROOT
BRANCH   1   7
ATOM     7   C8  UNL     1       0.754  -1.213   2.783  1.00  0.00     0.155 C   
BRANCH   7   8
ATOM     8   C7  UNL     1      -0.349  -0.461   3.530  1.00  0.00    -0.020 A   
ATOM     9   C2  UNL     1      -1.669  -0.968   3.622  1.00  0.00    -0.043 A   
ATOM     10  C3  UNL     1      -2.646  -0.227   4.309  1.00  0.00     0.043 A   
ATOM     11  C4  UNL     1      -2.329   0.994   4.889  1.00  0.00     0.123 A   
ATOM     12  C6  UNL     1      -0.062   0.786   4.129  1.00  0.00     0.009 A   
ATOM     13  C5  UNL     1      -1.046   1.508   4.805  1.00  0.00     0.039 A   
ATOM     14  C1  UNL     1      -2.076  -2.285   3.015  1.00  0.00     0.045 C   
ATOM     15  F1  UNL     1      -3.278   1.688   5.529  1.00  0.00    -0.207 F   
ENDBRANCH   7   8
BRANCH   7  16
ATOM     16  C9  UNL     1       2.077  -1.327   3.563  1.00  0.00     0.185 C   
BRANCH  16  17
ATOM     17  O1  UNL     1       2.888  -2.362   2.998  1.00  0.00    -0.394 OA  
ATOM     18  H10 UNL     1       3.705  -2.406   3.530  1.00  0.00     0.210 HD  
ENDBRANCH  16  17
ENDBRANCH   7  16
ENDBRANCH   1   7
BRANCH   3  19
ATOM     19  C12 UNL     1       0.913  -0.140  -2.159  1.00  0.00     0.120 C   
BRANCH  19  20
ATOM     20  N2  UNL     1       0.492   1.278  -2.511  1.00  0.00     0.250 N   
ATOM     21  H13 UNL     1       1.044   1.653  -3.285  1.00  0.00     0.199 HD  
ATOM     22  H14 UNL     1       0.753   1.854  -1.695  1.00  0.00     0.199 HD  
BRANCH  20  23
ATOM     23  C13 UNL     1      -0.955   1.494  -2.792  1.00  0.00     0.164 C   
BRANCH  23  24
ATOM     24  C14 UNL     1      -1.879   1.073  -1.683  1.00  0.00    -0.002 A   
ATOM     25  C15 UNL     1      -1.876   1.751  -0.440  1.00  0.00     0.012 A   
ATOM     26  C19 UNL     1      -2.749  -0.016  -1.870  1.00  0.00     0.045 A   
ATOM     27  C16 UNL     1      -2.717   1.348   0.603  1.00  0.00     0.037 A   
ATOM     28  C18 UNL     1      -3.568  -0.384  -0.823  1.00  0.00     0.109 A   
ATOM     29  C17 UNL     1      -3.554   0.278   0.379  1.00  0.00     0.108 A   
ATOM     30  O2  UNL     1      -4.457  -1.411  -0.841  1.00  0.00    -0.316 OA  
ATOM     31  O3  UNL     1      -4.436  -0.248   1.268  1.00  0.00    -0.316 OA  
ATOM     32  C20 UNL     1      -5.049  -1.283   0.471  1.00  0.00     0.337 C   
ENDBRANCH  23  24
ENDBRANCH  20  23
ENDBRANCH  19  20
BRANCH  19  33
ATOM     33  C21 UNL     1       2.205  -0.547  -2.945  1.00  0.00     0.010 C   
ATOM     34  C22 UNL     1       3.404   0.379  -2.656  1.00  0.00     0.017 C   
ATOM     35  C23 UNL     1       1.928  -0.532  -4.466  1.00  0.00     0.017 C   
ATOM     36  C24 UNL     1       2.612  -1.993  -2.576  1.00  0.00     0.017 C   
ENDBRANCH  19  33
ENDBRANCH   3  19
TORSDOF 9
