REMARK SMILES CCn1cc(CCn2cc([C@@H]([NH2+]Cc3ccc4c(c3)OCO4)C(C)C)nn2)cn1
REMARK SMILES IDX 8 1 9 2 10 3 26 4 27 5 7 7 6 8 5 9 3 10 4 11 29 12 28 13
REMARK SMILES IDX 2 14 1 15 11 16 12 17 13 20 14 21 15 22 19 23 16 24 18 25
REMARK SMILES IDX 17 26 20 27 22 28 21 29 23 30 24 31 25 32
REMARK H PARENT 9 6 12 18 12 19
ROOT
ATOM     1   N2  UNL     1       0.459  -2.688   2.787  1.00  0.00    -0.212 N   
ATOM     2   C7  UNL     1       1.218  -2.607   1.645  1.00  0.00     0.045 A   
ATOM     3   C8  UNL     1       0.294  -2.728   0.627  1.00  0.00     0.127 A   
ATOM     4   N4  UNL     1      -0.921  -3.070   1.179  1.00  0.00    -0.132 NA  
ATOM     5   N5  UNL     1      -0.802  -3.061   2.498  1.00  0.00    -0.076 NA  
ATOM     6   H11 UNL     1       2.259  -2.309   1.673  1.00  0.00     0.083 HD  
ENDROOT
BRANCH   1   7
ATOM     7   C6  UNL     1       0.775  -2.082   4.068  1.00  0.00     0.139 C   
BRANCH   7   8
ATOM     8   C5  UNL     1       0.166  -0.675   4.233  1.00  0.00     0.060 C   
BRANCH   8   9
ATOM     9   C4  UNL     1       0.374   0.193   3.033  1.00  0.00    -0.011 A   
ATOM     10  N1  UNL     1       1.176   1.469   1.442  1.00  0.00    -0.233 N   
ATOM     11  C3  UNL     1       1.432   1.012   2.700  1.00  0.00     0.101 A   
ATOM     12  N6  UNL     1       0.086   0.883   0.876  1.00  0.00    -0.190 NA  
ATOM     13  C21 UNL     1      -0.495   0.286   1.923  1.00  0.00     0.136 A   
BRANCH  10  14
ATOM     14  C2  UNL     1       1.920   2.489   0.726  1.00  0.00     0.128 C   
ATOM     15  C1  UNL     1       1.344   3.867   0.988  1.00  0.00     0.027 C   
ENDBRANCH  10  14
ENDBRANCH   8   9
ENDBRANCH   7   8
ENDBRANCH   1   7
BRANCH   3  16
ATOM     16  C9  UNL     1       0.381  -2.437  -0.840  1.00  0.00     0.117 C   
BRANCH  16  17
ATOM     17  N3  UNL     1      -0.329  -1.157  -1.194  1.00  0.00     0.249 N   
ATOM     18  H13 UNL     1      -0.080  -0.420  -0.503  1.00  0.00     0.199 HD  
ATOM     19  H14 UNL     1      -0.005  -0.798  -2.091  1.00  0.00     0.199 HD  
BRANCH  17  20
ATOM     20  C10 UNL     1      -1.820  -1.222  -1.236  1.00  0.00     0.164 C   
BRANCH  20  21
ATOM     21  C11 UNL     1      -2.371  -0.172  -2.164  1.00  0.00    -0.002 A   
ATOM     22  C12 UNL     1      -2.861  -0.540  -3.440  1.00  0.00     0.012 A   
ATOM     23  C16 UNL     1      -2.353   1.185  -1.797  1.00  0.00     0.045 A   
ATOM     24  C13 UNL     1      -3.325   0.425  -4.340  1.00  0.00     0.037 A   
ATOM     25  C15 UNL     1      -2.815   2.112  -2.709  1.00  0.00     0.109 A   
ATOM     26  C14 UNL     1      -3.287   1.742  -3.946  1.00  0.00     0.108 A   
ATOM     27  O1  UNL     1      -2.842   3.458  -2.525  1.00  0.00    -0.316 OA  
ATOM     28  O2  UNL     1      -3.678   2.808  -4.691  1.00  0.00    -0.316 OA  
ATOM     29  C17 UNL     1      -3.425   3.893  -3.774  1.00  0.00     0.337 C   
ENDBRANCH  20  21
ENDBRANCH  17  20
ENDBRANCH  16  17
BRANCH  16  30
ATOM     30  C18 UNL     1       1.829  -2.417  -1.407  1.00  0.00     0.037 C   
ATOM     31  C19 UNL     1       1.824  -2.701  -2.918  1.00  0.00     0.014 C   
ATOM     32  C20 UNL     1       2.606  -1.118  -1.145  1.00  0.00     0.014 C   
ENDBRANCH  16  30
ENDBRANCH   3  16
TORSDOF 9
