REMARK SMILES Fc1cnccc1CCn1cc([C@@H]([NH2+]Cc2ccc3c(c2)OCO3)C2CCCC2)nn1
REMARK SMILES IDX 10 1 11 2 12 3 30 4 31 5 9 7 8 8 7 9 2 10 3 11 4 12 6 13
REMARK SMILES IDX 5 14 1 15 13 16 14 17 15 20 16 21 17 22 21 23 18 24 20 25
REMARK SMILES IDX 19 26 22 27 24 28 23 29 25 30 26 31 29 32 27 33 28 34
REMARK H PARENT 11 6 14 18 14 19
ROOT
ATOM     1   N2  UNL     1      -1.286  -1.213   2.133  1.00  0.00    -0.212 N   
ATOM     2   C8  UNL     1      -1.274  -1.998   1.012  1.00  0.00     0.045 A   
ATOM     3   C9  UNL     1      -0.124  -1.619   0.358  1.00  0.00     0.127 A   
ATOM     4   N4  UNL     1       0.534  -0.678   1.109  1.00  0.00    -0.132 NA  
ATOM     5   N5  UNL     1      -0.183  -0.445   2.196  1.00  0.00    -0.076 NA  
ATOM     6   H8  UNL     1      -2.086  -2.668   0.765  1.00  0.00     0.083 HD  
ENDROOT
BRANCH   1   7
ATOM     7   C7  UNL     1      -2.382  -1.014   3.059  1.00  0.00     0.139 C   
BRANCH   7   8
ATOM     8   C6  UNL     1      -3.000   0.390   2.970  1.00  0.00     0.060 C   
BRANCH   8   9
ATOM     9   C5  UNL     1      -3.308   0.850   1.564  1.00  0.00    -0.007 A   
ATOM     10  C1  UNL     1      -4.153   0.123   0.726  1.00  0.00     0.144 A   
ATOM     11  C2  UNL     1      -4.327   0.536  -0.584  1.00  0.00     0.150 A   
ATOM     12  N1  UNL     1      -3.709   1.617  -1.117  1.00  0.00    -0.262 NA  
ATOM     13  C4  UNL     1      -2.719   2.012   1.051  1.00  0.00     0.027 A   
ATOM     14  C3  UNL     1      -2.955   2.356  -0.274  1.00  0.00     0.111 A   
ATOM     15  F1  UNL     1      -4.747  -0.995   1.161  1.00  0.00    -0.205 F   
ENDBRANCH   8   9
ENDBRANCH   7   8
ENDBRANCH   1   7
BRANCH   3  16
ATOM     16  C10 UNL     1       0.390  -1.961  -1.004  1.00  0.00     0.117 C   
BRANCH  16  17
ATOM     17  N3  UNL     1       0.876  -0.705  -1.676  1.00  0.00     0.249 N   
ATOM     18  H10 UNL     1       1.501  -0.893  -2.465  1.00  0.00     0.199 HD  
ATOM     19  H11 UNL     1       1.443  -0.205  -0.974  1.00  0.00     0.199 HD  
BRANCH  17  20
ATOM     20  C11 UNL     1      -0.199   0.232  -2.116  1.00  0.00     0.164 C   
BRANCH  20  21
ATOM     21  C12 UNL     1       0.385   1.565  -2.490  1.00  0.00    -0.002 A   
ATOM     22  C13 UNL     1       0.613   1.900  -3.845  1.00  0.00     0.012 A   
ATOM     23  C17 UNL     1       0.748   2.474  -1.480  1.00  0.00     0.045 A   
ATOM     24  C14 UNL     1       1.186   3.129  -4.193  1.00  0.00     0.037 A   
ATOM     25  C16 UNL     1       1.310   3.675  -1.857  1.00  0.00     0.109 A   
ATOM     26  C15 UNL     1       1.524   3.994  -3.175  1.00  0.00     0.108 A   
ATOM     27  O1  UNL     1       1.713   4.660  -1.012  1.00  0.00    -0.316 OA  
ATOM     28  O2  UNL     1       2.091   5.219  -3.326  1.00  0.00    -0.316 OA  
ATOM     29  C18 UNL     1       2.195   5.647  -1.952  1.00  0.00     0.337 C   
ENDBRANCH  20  21
ENDBRANCH  17  20
ENDBRANCH  16  17
BRANCH  16  30
ATOM     30  C19 UNL     1       1.496  -3.030  -0.951  1.00  0.00     0.043 C   
ATOM     31  C20 UNL     1       2.849  -2.592  -0.385  1.00  0.00     0.010 C   
ATOM     32  C23 UNL     1       1.891  -3.602  -2.316  1.00  0.00     0.010 C   
ATOM     33  C21 UNL     1       3.803  -3.710  -0.798  1.00  0.00     0.001 C   
ATOM     34  C22 UNL     1       3.190  -4.354  -2.042  1.00  0.00     0.001 C   
ENDBRANCH  16  30
ENDBRANCH   3  16
TORSDOF 8
