REMARK SMILES CC(C)C[C@H]([NH2+]Cc1ccc2c(c1)OCO2)c1cn([C@@H](CO)c2n[nH]c3c2CCC3)nn1
REMARK SMILES IDX 17 1 18 2 19 3 31 4 32 5 5 7 4 8 2 9 1 10 3 11 6 12 7 15
REMARK SMILES IDX 8 16 9 17 13 18 10 19 12 20 11 21 14 22 16 23 15 24 20 25
REMARK SMILES IDX 21 26 22 27 23 29 24 30 27 31 25 32 26 33 28 34 30 35 29 36
REMARK H PARENT 18 6 6 13 6 14 22 28 25 37
ROOT
ATOM     1   C14 UNL     1       0.006   0.677  -1.019  1.00  0.00     0.127 A   
ATOM     2   C15 UNL     1      -0.278   0.641   0.326  1.00  0.00     0.046 A   
ATOM     3   N2  UNL     1      -1.230  -0.339   0.444  1.00  0.00    -0.201 N   
ATOM     4   N5  UNL     1      -1.534  -0.848  -0.771  1.00  0.00    -0.075 NA  
ATOM     5   N6  UNL     1      -0.786  -0.232  -1.671  1.00  0.00    -0.132 NA  
ATOM     6   H20 UNL     1       0.137   1.143   1.190  1.00  0.00     0.083 HD  
ENDROOT
BRANCH   1   7
ATOM     7   C5  UNL     1       1.077   1.384  -1.783  1.00  0.00     0.114 C   
BRANCH   7   8
ATOM     8   C4  UNL     1       0.492   2.444  -2.737  1.00  0.00     0.064 C   
BRANCH   8   9
ATOM     9   C2  UNL     1       1.406   3.647  -3.065  1.00  0.00    -0.012 C   
ATOM     10  C1  UNL     1       2.721   3.257  -3.736  1.00  0.00     0.007 C   
ATOM     11  C3  UNL     1       1.677   4.513  -1.831  1.00  0.00     0.007 C   
ENDBRANCH   8   9
ENDBRANCH   7   8
BRANCH   7  12
ATOM     12  N1  UNL     1       1.813   0.340  -2.590  1.00  0.00     0.249 N   
ATOM     13  H11 UNL     1       2.208   0.704  -3.460  1.00  0.00     0.199 HD  
ATOM     14  H12 UNL     1       1.080  -0.327  -2.888  1.00  0.00     0.199 HD  
BRANCH  12  15
ATOM     15  C6  UNL     1       2.841  -0.437  -1.840  1.00  0.00     0.164 C   
BRANCH  15  16
ATOM     16  C7  UNL     1       2.849  -1.875  -2.280  1.00  0.00    -0.002 A   
ATOM     17  C8  UNL     1       3.531  -2.272  -3.455  1.00  0.00     0.012 A   
ATOM     18  C12 UNL     1       2.118  -2.828  -1.545  1.00  0.00     0.045 A   
ATOM     19  C9  UNL     1       3.492  -3.603  -3.891  1.00  0.00     0.037 A   
ATOM     20  C11 UNL     1       2.108  -4.131  -1.996  1.00  0.00     0.109 A   
ATOM     21  C10 UNL     1       2.772  -4.507  -3.140  1.00  0.00     0.108 A   
ATOM     22  O1  UNL     1       1.473  -5.174  -1.395  1.00  0.00    -0.316 OA  
ATOM     23  O2  UNL     1       2.633  -5.833  -3.406  1.00  0.00    -0.316 OA  
ATOM     24  C13 UNL     1       1.844  -6.262  -2.273  1.00  0.00     0.337 C   
ENDBRANCH  15  16
ENDBRANCH  12  15
ENDBRANCH   7  12
ENDBRANCH   1   7
BRANCH   3  25
ATOM     25  C16 UNL     1      -1.775  -0.959   1.649  1.00  0.00     0.176 C   
BRANCH  25  26
ATOM     26  C17 UNL     1      -0.734  -1.879   2.311  1.00  0.00     0.187 C   
BRANCH  26  27
ATOM     27  O3  UNL     1       0.432  -1.179   2.765  1.00  0.00    -0.394 OA  
ATOM     28  H24 UNL     1       0.095  -0.514   3.409  1.00  0.00     0.210 HD  
ENDBRANCH  26  27
ENDBRANCH  25  26
BRANCH  25  29
ATOM     29  C18 UNL     1      -2.341   0.084   2.569  1.00  0.00     0.088 A   
ATOM     30  N3  UNL     1      -1.613   0.621   3.579  1.00  0.00    -0.187 NA  
ATOM     31  C20 UNL     1      -3.628   0.633   2.549  1.00  0.00    -0.004 A   
ATOM     32  N4  UNL     1      -2.468   1.478   4.204  1.00  0.00    -0.242 N   
ATOM     33  C19 UNL     1      -3.672   1.490   3.602  1.00  0.00     0.030 A   
ATOM     34  C21 UNL     1      -4.909   0.600   1.820  1.00  0.00     0.039 C   
ATOM     35  C23 UNL     1      -4.953   2.179   3.803  1.00  0.00     0.054 C   
ATOM     36  C22 UNL     1      -5.675   1.817   2.457  1.00  0.00     0.011 C   
ATOM     37  H25 UNL     1      -2.143   2.015   5.001  1.00  0.00     0.175 HD  
ENDBRANCH  25  29
ENDBRANCH   3  25
TORSDOF 10
