REMARK SMILES CC(C)C[C@H]([NH2+]Cc1ccc2c(c1)OCO2)c1cn([C@H](CO)c2n[nH]c3c2CCC3)nn1
REMARK SMILES IDX 17 1 18 2 19 3 31 4 32 5 5 7 4 8 2 9 1 10 3 11 6 12 7 15
REMARK SMILES IDX 8 16 9 17 13 18 10 19 12 20 11 21 14 22 16 23 15 24 20 25
REMARK SMILES IDX 21 26 22 27 23 29 24 30 27 31 25 32 26 33 28 34 30 35 29 36
REMARK H PARENT 18 6 6 13 6 14 22 28 25 37
ROOT
ATOM     1   C14 UNL     1       0.192  -0.371   0.086  1.00  0.00     0.127 A   
ATOM     2   C15 UNL     1      -0.274  -0.961  -1.066  1.00  0.00     0.046 A   
ATOM     3   N2  UNL     1       0.077  -0.091  -2.065  1.00  0.00    -0.201 N   
ATOM     4   N5  UNL     1       0.725   0.977  -1.549  1.00  0.00    -0.075 NA  
ATOM     5   N6  UNL     1       0.812   0.810  -0.240  1.00  0.00    -0.132 NA  
ATOM     6   H20 UNL     1      -0.820  -1.873  -1.270  1.00  0.00     0.083 HD  
ENDROOT
BRANCH   1   7
ATOM     7   C5  UNL     1       0.109  -0.777   1.523  1.00  0.00     0.114 C   
BRANCH   7   8
ATOM     8   C4  UNL     1      -1.043  -1.747   1.843  1.00  0.00     0.064 C   
BRANCH   8   9
ATOM     9   C2  UNL     1      -1.169  -2.186   3.318  1.00  0.00    -0.012 C   
ATOM     10  C1  UNL     1      -2.389  -3.096   3.481  1.00  0.00     0.007 C   
ATOM     11  C3  UNL     1       0.082  -2.908   3.820  1.00  0.00     0.007 C   
ENDBRANCH   8   9
ENDBRANCH   7   8
BRANCH   7  12
ATOM     12  N1  UNL     1       0.065   0.438   2.411  1.00  0.00     0.249 N   
ATOM     13  H11 UNL     1       0.849   1.033   2.103  1.00  0.00     0.199 HD  
ATOM     14  H12 UNL     1       0.270   0.194   3.386  1.00  0.00     0.199 HD  
BRANCH  12  15
ATOM     15  C6  UNL     1      -1.153   1.298   2.347  1.00  0.00     0.164 C   
BRANCH  15  16
ATOM     16  C7  UNL     1      -0.970   2.516   3.210  1.00  0.00    -0.002 A   
ATOM     17  C8  UNL     1      -1.435   2.522   4.548  1.00  0.00     0.012 A   
ATOM     18  C12 UNL     1      -0.278   3.633   2.709  1.00  0.00     0.045 A   
ATOM     19  C9  UNL     1      -1.223   3.629   5.375  1.00  0.00     0.037 A   
ATOM     20  C11 UNL     1      -0.081   4.705   3.554  1.00  0.00     0.109 A   
ATOM     21  C10 UNL     1      -0.540   4.704   4.848  1.00  0.00     0.108 A   
ATOM     22  O1  UNL     1       0.577   5.852   3.237  1.00  0.00    -0.316 OA  
ATOM     23  O2  UNL     1      -0.235   5.853   5.508  1.00  0.00    -0.316 OA  
ATOM     24  C13 UNL     1       0.468   6.584   4.479  1.00  0.00     0.337 C   
ENDBRANCH  15  16
ENDBRANCH  12  15
ENDBRANCH   7  12
ENDBRANCH   1   7
BRANCH   3  25
ATOM     25  C16 UNL     1      -0.227  -0.148  -3.492  1.00  0.00     0.176 C   
BRANCH  25  26
ATOM     26  C17 UNL     1      -1.716   0.131  -3.762  1.00  0.00     0.187 C   
BRANCH  26  27
ATOM     27  O3  UNL     1      -2.590  -0.854  -3.200  1.00  0.00    -0.394 OA  
ATOM     28  H24 UNL     1      -2.276  -1.719  -3.552  1.00  0.00     0.210 HD  
ENDBRANCH  26  27
ENDBRANCH  25  26
BRANCH  25  29
ATOM     29  C18 UNL     1       0.257  -1.442  -4.085  1.00  0.00     0.088 A   
ATOM     30  N3  UNL     1      -0.501  -2.567  -4.055  1.00  0.00    -0.187 NA  
ATOM     31  C20 UNL     1       1.466  -1.690  -4.743  1.00  0.00    -0.004 A   
ATOM     32  N4  UNL     1       0.239  -3.504  -4.710  1.00  0.00    -0.242 N   
ATOM     33  C19 UNL     1       1.415  -2.996  -5.118  1.00  0.00     0.030 A   
ATOM     34  C21 UNL     1       2.722  -1.051  -5.176  1.00  0.00     0.039 C   
ATOM     35  C23 UNL     1       2.586  -3.488  -5.858  1.00  0.00     0.054 C   
ATOM     36  C22 UNL     1       3.577  -2.293  -5.622  1.00  0.00     0.011 C   
ATOM     37  H25 UNL     1      -0.140  -4.440  -4.832  1.00  0.00     0.175 HD  
ENDBRANCH  25  29
ENDBRANCH   3  25
TORSDOF 10
