REMARK SMILES CC(C)C[C@H]([NH2+]Cc1ccc2c(c1)OCO2)c1cn([C@@H](CO)c2ccccc2Cl)nn1
REMARK SMILES IDX 17 1 18 2 19 3 30 4 31 5 5 7 4 8 2 9 1 10 3 11 6 12 7 15
REMARK SMILES IDX 8 16 9 17 13 18 10 19 12 20 11 21 14 22 16 23 15 24 20 25
REMARK SMILES IDX 21 26 22 27 23 29 24 30 28 31 25 32 27 33 26 34 29 35
REMARK H PARENT 18 6 6 13 6 14 22 28
ROOT
ATOM     1   C14 UNL     1       0.550   0.040   0.192  1.00  0.00     0.127 A   
ATOM     2   C15 UNL     1       1.039  -0.198  -1.072  1.00  0.00     0.046 A   
ATOM     3   N2  UNL     1       2.198  -0.895  -0.856  1.00  0.00    -0.202 N   
ATOM     4   N3  UNL     1       2.361  -1.145   0.461  1.00  0.00    -0.075 NA  
ATOM     5   N4  UNL     1       1.367  -0.563   1.112  1.00  0.00    -0.132 NA  
ATOM     6   H20 UNL     1       0.703   0.070  -2.064  1.00  0.00     0.083 HD  
ENDROOT
BRANCH   1   7
ATOM     7   C5  UNL     1      -0.669   0.767   0.654  1.00  0.00     0.114 C   
BRANCH   7   8
ATOM     8   C4  UNL     1      -0.362   2.213   1.088  1.00  0.00     0.064 C   
BRANCH   8   9
ATOM     9   C2  UNL     1       0.208   3.126  -0.021  1.00  0.00    -0.012 C   
ATOM     10  C1  UNL     1       0.531   4.505   0.561  1.00  0.00     0.007 C   
ATOM     11  C3  UNL     1      -0.753   3.278  -1.200  1.00  0.00     0.007 C   
ENDBRANCH   8   9
ENDBRANCH   7   8
BRANCH   7  12
ATOM     12  N1  UNL     1      -1.236   0.008   1.827  1.00  0.00     0.249 N   
ATOM     13  H11 UNL     1      -0.543   0.029   2.590  1.00  0.00     0.199 HD  
ATOM     14  H12 UNL     1      -1.256  -0.987   1.561  1.00  0.00     0.199 HD  
BRANCH  12  15
ATOM     15  C6  UNL     1      -2.578   0.392   2.320  1.00  0.00     0.164 C   
BRANCH  15  16
ATOM     16  C7  UNL     1      -3.095  -0.623   3.301  1.00  0.00    -0.002 A   
ATOM     17  C8  UNL     1      -2.757  -0.528   4.673  1.00  0.00     0.012 A   
ATOM     18  C12 UNL     1      -3.873  -1.704   2.852  1.00  0.00     0.045 A   
ATOM     19  C9  UNL     1      -3.199  -1.490   5.588  1.00  0.00     0.037 A   
ATOM     20  C11 UNL     1      -4.291  -2.634   3.782  1.00  0.00     0.109 A   
ATOM     21  C10 UNL     1      -3.964  -2.530   5.111  1.00  0.00     0.108 A   
ATOM     22  O1  UNL     1      -5.046  -3.731   3.516  1.00  0.00    -0.316 OA  
ATOM     23  O2  UNL     1      -4.474  -3.549   5.851  1.00  0.00    -0.316 OA  
ATOM     24  C13 UNL     1      -5.176  -4.301   4.838  1.00  0.00     0.337 C   
ENDBRANCH  15  16
ENDBRANCH  12  15
ENDBRANCH   7  12
ENDBRANCH   1   7
BRANCH   3  25
ATOM     25  C16 UNL     1       3.194  -1.367  -1.822  1.00  0.00     0.157 C   
BRANCH  25  26
ATOM     26  C17 UNL     1       2.864  -2.813  -2.251  1.00  0.00     0.186 C   
BRANCH  26  27
ATOM     27  O3  UNL     1       1.558  -2.942  -2.818  1.00  0.00    -0.394 OA  
ATOM     28  H24 UNL     1       1.448  -3.880  -3.062  1.00  0.00     0.210 HD  
ENDBRANCH  26  27
ENDBRANCH  25  26
BRANCH  25  29
ATOM     29  C18 UNL     1       3.432  -0.338  -2.929  1.00  0.00    -0.005 A   
ATOM     30  C19 UNL     1       2.974  -0.547  -4.244  1.00  0.00     0.007 A   
ATOM     31  C23 UNL     1       4.111   0.872  -2.664  1.00  0.00     0.046 A   
ATOM     32  C20 UNL     1       3.189   0.400  -5.249  1.00  0.00     0.000 A   
ATOM     33  C22 UNL     1       4.325   1.817  -3.674  1.00  0.00     0.021 A   
ATOM     34  C21 UNL     1       3.865   1.581  -4.966  1.00  0.00     0.002 A   
ATOM     35  CL1 UNL     1       4.707   1.270  -1.090  1.00  0.00    -0.084 Cl  
ENDBRANCH  25  29
ENDBRANCH   3  25
TORSDOF 10
