REMARK SMILES CC(C)C[C@H]([NH2+]Cc1ccc2c(c1)OCO2)c1cn([C@H](CO)c2ccccc2Cl)nn1
REMARK SMILES IDX 17 1 18 2 19 3 30 4 31 5 5 7 4 8 2 9 1 10 3 11 6 12 7 15
REMARK SMILES IDX 8 16 9 17 13 18 10 19 12 20 11 21 14 22 16 23 15 24 20 25
REMARK SMILES IDX 21 26 22 27 23 29 24 30 28 31 25 32 27 33 26 34 29 35
REMARK H PARENT 18 6 6 13 6 14 22 28
ROOT
ATOM     1   C14 UNL     1       0.348  -0.853   1.432  1.00  0.00     0.127 A   
ATOM     2   C15 UNL     1      -0.110  -1.198   0.182  1.00  0.00     0.046 A   
ATOM     3   N2  UNL     1      -0.897  -2.295   0.408  1.00  0.00    -0.202 N   
ATOM     4   N3  UNL     1      -0.913  -2.607   1.722  1.00  0.00    -0.075 NA  
ATOM     5   N4  UNL     1      -0.160  -1.725   2.358  1.00  0.00    -0.132 NA  
ATOM     6   H20 UNL     1       0.043  -0.789  -0.807  1.00  0.00     0.083 HD  
ENDROOT
BRANCH   1   7
ATOM     7   C5  UNL     1       1.190   0.288   1.883  1.00  0.00     0.114 C   
BRANCH   7   8
ATOM     8   C4  UNL     1       2.631  -0.132   2.231  1.00  0.00     0.064 C   
BRANCH   8   9
ATOM     9   C2  UNL     1       3.447  -0.715   1.057  1.00  0.00    -0.012 C   
ATOM     10  C1  UNL     1       3.573   0.265  -0.112  1.00  0.00     0.007 C   
ATOM     11  C3  UNL     1       4.842  -1.115   1.548  1.00  0.00     0.007 C   
ENDBRANCH   8   9
ENDBRANCH   7   8
BRANCH   7  12
ATOM     12  N1  UNL     1       0.592   0.892   3.139  1.00  0.00     0.249 N   
ATOM     13  H11 UNL     1       0.423   0.106   3.783  1.00  0.00     0.199 HD  
ATOM     14  H12 UNL     1       1.268   1.514   3.589  1.00  0.00     0.199 HD  
BRANCH  12  15
ATOM     15  C6  UNL     1      -0.706   1.614   2.965  1.00  0.00     0.164 C   
BRANCH  15  16
ATOM     16  C7  UNL     1      -0.592   2.810   2.062  1.00  0.00    -0.002 A   
ATOM     17  C8  UNL     1      -1.253   2.823   0.810  1.00  0.00     0.012 A   
ATOM     18  C12 UNL     1       0.207   3.906   2.433  1.00  0.00     0.045 A   
ATOM     19  C9  UNL     1      -1.113   3.904  -0.067  1.00  0.00     0.037 A   
ATOM     20  C11 UNL     1       0.330   4.951   1.541  1.00  0.00     0.109 A   
ATOM     21  C10 UNL     1      -0.311   4.951   0.326  1.00  0.00     0.108 A   
ATOM     22  O1  UNL     1       1.078   6.068   1.735  1.00  0.00    -0.316 OA  
ATOM     23  O2  UNL     1      -0.053   6.072  -0.396  1.00  0.00    -0.316 OA  
ATOM     24  C13 UNL     1       0.836   6.777   0.495  1.00  0.00     0.337 C   
ENDBRANCH  15  16
ENDBRANCH  12  15
ENDBRANCH   7  12
ENDBRANCH   1   7
BRANCH   3  25
ATOM     25  C16 UNL     1      -1.665  -3.096  -0.548  1.00  0.00     0.157 C   
BRANCH  25  26
ATOM     26  C17 UNL     1      -0.762  -4.204  -1.132  1.00  0.00     0.186 C   
BRANCH  26  27
ATOM     27  O3  UNL     1       0.391  -3.681  -1.802  1.00  0.00    -0.394 OA  
ATOM     28  H24 UNL     1       0.922  -4.446  -2.096  1.00  0.00     0.210 HD  
ENDBRANCH  26  27
ENDBRANCH  25  26
BRANCH  25  29
ATOM     29  C18 UNL     1      -2.433  -2.207  -1.530  1.00  0.00    -0.005 A   
ATOM     30  C19 UNL     1      -2.081  -2.143  -2.893  1.00  0.00     0.007 A   
ATOM     31  C23 UNL     1      -3.526  -1.417  -1.106  1.00  0.00     0.046 A   
ATOM     32  C20 UNL     1      -2.790  -1.337  -3.791  1.00  0.00     0.000 A   
ATOM     33  C22 UNL     1      -4.234  -0.613  -2.010  1.00  0.00     0.021 A   
ATOM     34  C21 UNL     1      -3.867  -0.575  -3.350  1.00  0.00     0.002 A   
ATOM     35  CL1 UNL     1      -4.053  -1.376   0.541  1.00  0.00    -0.084 Cl  
ENDBRANCH  25  29
ENDBRANCH   3  25
TORSDOF 10
