REMARK SMILES NCc1ccc(Cn2cc([C@@H]([NH2+]Cc3ccc4c(c3)OCO4)C3CCCC3)nn2)cc1
REMARK SMILES IDX 8 1 9 2 10 3 28 4 29 5 7 7 6 8 3 9 4 10 31 11 5 12 30 13
REMARK SMILES IDX 2 14 1 15 11 18 12 19 13 22 14 23 15 24 19 25 16 26 18 27
REMARK SMILES IDX 17 28 20 29 22 30 21 31 23 32 24 33 27 34 25 35 26 36
REMARK H PARENT 9 6 1 16 1 17 12 20 12 21
ROOT
ATOM     1   N2  UNL     1       1.050   2.941   0.796  1.00  0.00    -0.208 N   
ATOM     2   C7  UNL     1       0.523   1.869   1.463  1.00  0.00     0.046 A   
ATOM     3   C8  UNL     1       1.528   0.930   1.430  1.00  0.00     0.127 A   
ATOM     4   N4  UNL     1       2.607   1.446   0.760  1.00  0.00    -0.132 NA  
ATOM     5   N5  UNL     1       2.301   2.673   0.373  1.00  0.00    -0.076 NA  
ATOM     6   H9  UNL     1      -0.480   1.877   1.869  1.00  0.00     0.083 HD  
ENDROOT
BRANCH   1   7
ATOM     7   C6  UNL     1       0.432   4.230   0.530  1.00  0.00     0.169 C   
BRANCH   7   8
ATOM     8   C5  UNL     1      -0.685   4.099  -0.474  1.00  0.00    -0.029 A   
ATOM     9   C2  UNL     1      -2.772   3.873  -2.366  1.00  0.00    -0.034 A   
ATOM     10  C3  UNL     1      -3.054   4.152  -1.022  1.00  0.00     0.005 A   
ATOM     11  C24 UNL     1      -1.435   3.689  -2.748  1.00  0.00     0.005 A   
ATOM     12  C4  UNL     1      -2.022   4.266  -0.086  1.00  0.00     0.006 A   
ATOM     13  C23 UNL     1      -0.402   3.808  -1.816  1.00  0.00     0.006 A   
BRANCH   9  14
ATOM     14  C1  UNL     1      -3.889   3.748  -3.375  1.00  0.00     0.113 C   
BRANCH  14  15
ATOM     15  N1  UNL     1      -3.620   4.523  -4.580  1.00  0.00    -0.327 NA  
ATOM     16  H1  UNL     1      -3.519   5.505  -4.323  1.00  0.00     0.119 HD  
ATOM     17  H2  UNL     1      -4.430   4.477  -5.197  1.00  0.00     0.119 HD  
ENDBRANCH  14  15
ENDBRANCH   9  14
ENDBRANCH   7   8
ENDBRANCH   1   7
BRANCH   3  18
ATOM     18  C9  UNL     1       1.580  -0.474   1.935  1.00  0.00     0.117 C   
BRANCH  18  19
ATOM     19  N3  UNL     1       2.321  -1.345   0.941  1.00  0.00     0.249 N   
ATOM     20  H11 UNL     1       2.551  -2.252   1.357  1.00  0.00     0.199 HD  
ATOM     21  H12 UNL     1       3.211  -0.862   0.747  1.00  0.00     0.199 HD  
BRANCH  19  22
ATOM     22  C10 UNL     1       1.643  -1.574  -0.372  1.00  0.00     0.164 C   
BRANCH  22  23
ATOM     23  C11 UNL     1       0.365  -2.358  -0.240  1.00  0.00    -0.002 A   
ATOM     24  C12 UNL     1      -0.883  -1.737  -0.485  1.00  0.00     0.012 A   
ATOM     25  C16 UNL     1       0.400  -3.706   0.158  1.00  0.00     0.045 A   
ATOM     26  C13 UNL     1      -2.081  -2.444  -0.332  1.00  0.00     0.037 A   
ATOM     27  C15 UNL     1      -0.799  -4.373   0.302  1.00  0.00     0.109 A   
ATOM     28  C14 UNL     1      -2.005  -3.761   0.064  1.00  0.00     0.108 A   
ATOM     29  O1  UNL     1      -0.939  -5.669   0.684  1.00  0.00    -0.316 OA  
ATOM     30  O2  UNL     1      -3.058  -4.596   0.263  1.00  0.00    -0.316 OA  
ATOM     31  C17 UNL     1      -2.379  -5.815   0.633  1.00  0.00     0.337 C   
ENDBRANCH  22  23
ENDBRANCH  19  22
ENDBRANCH  18  19
BRANCH  18  32
ATOM     32  C18 UNL     1       2.304  -0.574   3.292  1.00  0.00     0.043 C   
ATOM     33  C19 UNL     1       1.630   0.230   4.410  1.00  0.00     0.010 C   
ATOM     34  C22 UNL     1       2.330  -1.991   3.884  1.00  0.00     0.010 C   
ATOM     35  C20 UNL     1       2.273  -0.325   5.671  1.00  0.00     0.001 C   
ATOM     36  C21 UNL     1       2.462  -1.812   5.397  1.00  0.00     0.001 C   
ENDBRANCH  18  32
ENDBRANCH   3  18
TORSDOF 9
