REMARK SMILES Cc1noc(C)c1Cn1cc([C@@H]([NH2+]Cc2ccc3c(c2)OCO3)C(C)C)nn1
REMARK SMILES IDX 9 1 10 2 11 3 27 4 28 5 8 7 7 8 2 9 3 10 4 11 5 12 1 13 6 14
REMARK SMILES IDX 12 15 13 16 14 19 15 20 16 21 20 22 17 23 19 24 18 25 21 26
REMARK SMILES IDX 23 27 22 28 24 29 25 30 26 31
REMARK H PARENT 10 6 13 17 13 18
ROOT
ATOM     1   N2  UNL     1      -1.052   2.076  -1.464  1.00  0.00    -0.208 N   
ATOM     2   C7  UNL     1      -0.915   2.246  -0.112  1.00  0.00     0.046 A   
ATOM     3   C8  UNL     1      -0.035   1.255   0.261  1.00  0.00     0.127 A   
ATOM     4   N4  UNL     1       0.335   0.541  -0.851  1.00  0.00    -0.132 NA  
ATOM     5   N5  UNL     1      -0.297   1.047  -1.896  1.00  0.00    -0.076 NA  
ATOM     6   H9  UNL     1      -1.454   3.008   0.433  1.00  0.00     0.083 HD  
ENDROOT
BRANCH   1   7
ATOM     7   C6  UNL     1      -1.902   2.814  -2.388  1.00  0.00     0.174 C   
BRANCH   7   8
ATOM     8   C5  UNL     1      -3.327   2.474  -2.154  1.00  0.00     0.024 A   
ATOM     9   C2  UNL     1      -3.995   1.249  -2.434  1.00  0.00     0.072 A   
ATOM     10  N1  UNL     1      -5.270   1.290  -2.037  1.00  0.00    -0.134 NA  
ATOM     11  O1  UNL     1      -5.473   2.558  -1.536  1.00  0.00    -0.218 OA  
ATOM     12  C3  UNL     1      -4.318   3.267  -1.613  1.00  0.00     0.088 A   
ATOM     13  C1  UNL     1      -3.455   0.014  -3.051  1.00  0.00     0.070 C   
ATOM     14  C4  UNL     1      -4.378   4.654  -1.115  1.00  0.00     0.076 C   
ENDBRANCH   7   8
ENDBRANCH   1   7
BRANCH   3  15
ATOM     15  C9  UNL     1       0.492   0.852   1.604  1.00  0.00     0.117 C   
BRANCH  15  16
ATOM     16  N3  UNL     1       0.899  -0.597   1.591  1.00  0.00     0.249 N   
ATOM     17  H11 UNL     1       1.413  -0.751   0.711  1.00  0.00     0.199 HD  
ATOM     18  H12 UNL     1       1.551  -0.827   2.348  1.00  0.00     0.199 HD  
BRANCH  16  19
ATOM     19  C10 UNL     1      -0.227  -1.573   1.611  1.00  0.00     0.164 C   
BRANCH  19  20
ATOM     20  C11 UNL     1       0.293  -2.973   1.443  1.00  0.00    -0.002 A   
ATOM     21  C12 UNL     1       0.525  -3.490   0.145  1.00  0.00     0.012 A   
ATOM     22  C16 UNL     1       0.605  -3.755   2.567  1.00  0.00     0.045 A   
ATOM     23  C13 UNL     1       1.050  -4.774  -0.033  1.00  0.00     0.037 A   
ATOM     24  C15 UNL     1       1.122  -5.016   2.356  1.00  0.00     0.109 A   
ATOM     25  C14 UNL     1       1.339  -5.512   1.093  1.00  0.00     0.108 A   
ATOM     26  O2  UNL     1       1.479  -5.896   3.328  1.00  0.00    -0.316 OA  
ATOM     27  O3  UNL     1       1.857  -6.767   1.111  1.00  0.00    -0.316 OA  
ATOM     28  C17 UNL     1       1.920  -7.020   2.531  1.00  0.00     0.337 C   
ENDBRANCH  19  20
ENDBRANCH  16  19
ENDBRANCH  15  16
BRANCH  15  29
ATOM     29  C18 UNL     1       1.678   1.742   2.057  1.00  0.00     0.037 C   
ATOM     30  C19 UNL     1       1.996   1.552   3.545  1.00  0.00     0.014 C   
ATOM     31  C20 UNL     1       2.953   1.547   1.227  1.00  0.00     0.014 C   
ENDBRANCH  15  29
ENDBRANCH   3  15
TORSDOF 7
