REMARK SMILES CC(C)C[C@H]([NH2+]Cc1ccc2c(c1)OCO2)c1cn(Cc2c(F)cccc2F)nn1
REMARK SMILES IDX 17 1 18 2 19 3 29 4 30 5 5 7 4 8 2 9 1 10 3 11 6 12 7 15
REMARK SMILES IDX 8 16 9 17 13 18 10 19 12 20 11 21 14 22 16 23 15 24 20 25
REMARK SMILES IDX 21 26 22 27 27 28 24 29 26 30 25 31 23 32 28 33
REMARK H PARENT 18 6 6 13 6 14
ROOT
ATOM     1   C14 UNL     1       0.749  -0.059   0.876  1.00  0.00     0.127 A   
ATOM     2   C15 UNL     1      -0.220   0.129   1.836  1.00  0.00     0.046 A   
ATOM     3   N2  UNL     1       0.489   0.348   2.985  1.00  0.00    -0.208 N   
ATOM     4   N3  UNL     1       1.812   0.356   2.734  1.00  0.00    -0.076 NA  
ATOM     5   N4  UNL     1       1.985   0.086   1.452  1.00  0.00    -0.132 NA  
ATOM     6   H20 UNL     1      -1.302   0.104   1.818  1.00  0.00     0.083 HD  
ENDROOT
BRANCH   1   7
ATOM     7   C5  UNL     1       0.650  -0.359  -0.586  1.00  0.00     0.114 C   
BRANCH   7   8
ATOM     8   C4  UNL     1       0.519  -1.879  -0.820  1.00  0.00     0.064 C   
BRANCH   8   9
ATOM     9   C2  UNL     1       0.298  -2.331  -2.280  1.00  0.00    -0.012 C   
ATOM     10  C1  UNL     1      -0.950  -1.709  -2.907  1.00  0.00     0.007 C   
ATOM     11  C3  UNL     1       0.193  -3.859  -2.331  1.00  0.00     0.007 C   
ENDBRANCH   8   9
ENDBRANCH   7   8
BRANCH   7  12
ATOM     12  N1  UNL     1       1.882   0.144  -1.299  1.00  0.00     0.249 N   
ATOM     13  H11 UNL     1       2.683  -0.146  -0.719  1.00  0.00     0.199 HD  
ATOM     14  H12 UNL     1       1.994  -0.305  -2.210  1.00  0.00     0.199 HD  
BRANCH  12  15
ATOM     15  C6  UNL     1       1.976   1.623  -1.479  1.00  0.00     0.164 C   
BRANCH  15  16
ATOM     16  C7  UNL     1       0.998   2.141  -2.497  1.00  0.00    -0.002 A   
ATOM     17  C8  UNL     1      -0.127   2.897  -2.088  1.00  0.00     0.012 A   
ATOM     18  C12 UNL     1       1.177   1.852  -3.861  1.00  0.00     0.045 A   
ATOM     19  C9  UNL     1      -1.064   3.352  -3.021  1.00  0.00     0.037 A   
ATOM     20  C11 UNL     1       0.233   2.313  -4.753  1.00  0.00     0.109 A   
ATOM     21  C10 UNL     1      -0.857   3.041  -4.346  1.00  0.00     0.108 A   
ATOM     22  O1  UNL     1       0.252   2.115  -6.097  1.00  0.00    -0.316 OA  
ATOM     23  O2  UNL     1      -1.661   3.394  -5.382  1.00  0.00    -0.316 OA  
ATOM     24  C13 UNL     1      -0.940   2.828  -6.497  1.00  0.00     0.337 C   
ENDBRANCH  15  16
ENDBRANCH  12  15
ENDBRANCH   7  12
ENDBRANCH   1   7
BRANCH   3  25
ATOM     25  C16 UNL     1      -0.018   0.597   4.324  1.00  0.00     0.175 C   
BRANCH  25  26
ATOM     26  C17 UNL     1      -0.270  -0.685   5.056  1.00  0.00     0.043 A   
ATOM     27  C18 UNL     1      -1.452  -1.402   4.864  1.00  0.00     0.131 A   
ATOM     28  C22 UNL     1       0.677  -1.213   5.931  1.00  0.00     0.131 A   
ATOM     29  C19 UNL     1      -1.693  -2.603   5.529  1.00  0.00     0.040 A   
ATOM     30  C21 UNL     1       0.455  -2.412   6.606  1.00  0.00     0.040 A   
ATOM     31  C20 UNL     1      -0.735  -3.110   6.407  1.00  0.00     0.006 A   
ATOM     32  F1  UNL     1      -2.377  -0.933   4.014  1.00  0.00    -0.207 F   
ATOM     33  F2  UNL     1       1.827  -0.557   6.137  1.00  0.00    -0.207 F   
ENDBRANCH  25  26
ENDBRANCH   3  25
TORSDOF 8
