REMARK SMILES Cc1cnc(Cn2cc([C@@H]([NH2+]Cc3ccc4c(c3)OCO4)C3CCCC3)nn2)c(C)c1O
REMARK SMILES IDX 7 1 8 2 9 3 27 4 28 5 6 7 5 8 2 9 3 10 31 11 4 12 29 13 1 14
REMARK SMILES IDX 30 15 32 16 10 18 11 19 12 22 13 23 14 24 18 25 15 26 17 27
REMARK SMILES IDX 16 28 19 29 21 30 20 31 22 32 23 33 26 34 24 35 25 36
REMARK H PARENT 8 6 32 17 11 20 11 21
ROOT
ATOM     1   N2  UNL     1      -0.902   2.162   1.332  1.00  0.00    -0.206 N   
ATOM     2   C6  UNL     1      -0.584   1.550   0.150  1.00  0.00     0.046 A   
ATOM     3   C7  UNL     1      -1.540   0.570   0.016  1.00  0.00     0.127 A   
ATOM     4   N4  UNL     1      -2.392   0.620   1.091  1.00  0.00    -0.132 NA  
ATOM     5   N5  UNL     1      -2.003   1.607   1.879  1.00  0.00    -0.076 NA  
ATOM     6   H7  UNL     1       0.274   1.848  -0.438  1.00  0.00     0.083 HD  
ENDROOT
BRANCH   1   7
ATOM     7   C5  UNL     1      -0.246   3.290   1.964  1.00  0.00     0.190 C   
BRANCH   7   8
ATOM     8   C4  UNL     1       0.999   2.849   2.687  1.00  0.00     0.065 A   
ATOM     9   C2  UNL     1       3.411   2.073   3.820  1.00  0.00    -0.002 A   
ATOM     10  C3  UNL     1       3.314   2.663   2.570  1.00  0.00     0.117 A   
ATOM     11  C24 UNL     1       2.212   1.871   4.505  1.00  0.00     0.080 A   
ATOM     12  N1  UNL     1       2.152   3.034   1.989  1.00  0.00    -0.259 NA  
ATOM     13  C22 UNL     1       0.981   2.275   3.965  1.00  0.00     0.003 A   
ATOM     14  C1  UNL     1       4.748   1.685   4.366  1.00  0.00     0.049 C   
ATOM     15  C23 UNL     1      -0.290   2.023   4.730  1.00  0.00     0.049 C   
BRANCH  11  16
ATOM     16  O3  UNL     1       2.185   1.261   5.731  1.00  0.00    -0.360 OA  
ATOM     17  H30 UNL     1       3.088   1.079   6.035  1.00  0.00     0.218 HD  
ENDBRANCH  11  16
ENDBRANCH   7   8
ENDBRANCH   1   7
BRANCH   3  18
ATOM     18  C8  UNL     1      -1.739  -0.495  -1.011  1.00  0.00     0.117 C   
BRANCH  18  19
ATOM     19  N3  UNL     1      -2.227  -1.755  -0.327  1.00  0.00     0.249 N   
ATOM     20  H9  UNL     1      -3.017  -2.165  -0.833  1.00  0.00     0.199 HD  
ATOM     21  H10 UNL     1      -2.614  -1.446   0.580  1.00  0.00     0.199 HD  
BRANCH  19  22
ATOM     22  C9  UNL     1      -1.212  -2.814  -0.072  1.00  0.00     0.164 C   
BRANCH  22  23
ATOM     23  C10 UNL     1      -0.005  -2.361   0.702  1.00  0.00    -0.002 A   
ATOM     24  C11 UNL     1      -0.116  -1.961   2.056  1.00  0.00     0.012 A   
ATOM     25  C15 UNL     1       1.252  -2.323   0.075  1.00  0.00     0.045 A   
ATOM     26  C12 UNL     1       1.006  -1.529   2.774  1.00  0.00     0.037 A   
ATOM     27  C14 UNL     1       2.337  -1.894   0.812  1.00  0.00     0.109 A   
ATOM     28  C13 UNL     1       2.219  -1.510   2.124  1.00  0.00     0.108 A   
ATOM     29  O1  UNL     1       3.613  -1.801   0.354  1.00  0.00    -0.316 OA  
ATOM     30  O2  UNL     1       3.409  -1.138   2.663  1.00  0.00    -0.316 OA  
ATOM     31  C16 UNL     1       4.293  -1.330   1.538  1.00  0.00     0.337 C   
ENDBRANCH  22  23
ENDBRANCH  19  22
ENDBRANCH  18  19
BRANCH  18  32
ATOM     32  C17 UNL     1      -2.733  -0.057  -2.106  1.00  0.00     0.043 C   
ATOM     33  C18 UNL     1      -4.171   0.219  -1.639  1.00  0.00     0.010 C   
ATOM     34  C21 UNL     1      -2.873  -1.061  -3.268  1.00  0.00     0.010 C   
ATOM     35  C19 UNL     1      -4.992   0.043  -2.906  1.00  0.00     0.001 C   
ATOM     36  C20 UNL     1      -4.370  -1.188  -3.543  1.00  0.00     0.001 C   
ENDBRANCH  18  32
ENDBRANCH   3  18
TORSDOF 8
