REMARK SMILES Cc1cccc(F)c1[C@@H](CO)n1cc([C@@H]([NH2+]Cc2ccc3c(c2)OCO3)C(C)(C)C)nn1
REMARK SMILES IDX 12 1 13 2 14 3 31 4 32 5 9 7 8 8 2 9 3 10 4 11 6 12 5 13
REMARK SMILES IDX 1 14 7 15 10 16 11 17 15 19 16 20 17 23 18 24 19 25 23 26
REMARK SMILES IDX 20 27 22 28 21 29 24 30 26 31 25 32 27 33 28 34 29 35 30 36
REMARK H PARENT 13 6 11 18 16 21 16 22
ROOT
ATOM     1   N1  UNL     1      -1.446  -1.472  -1.034  1.00  0.00    -0.202 N   
ATOM     2   C10 UNL     1      -1.357  -0.366  -0.230  1.00  0.00     0.046 A   
ATOM     3   C11 UNL     1      -0.627   0.536  -0.969  1.00  0.00     0.127 A   
ATOM     4   N3  UNL     1      -0.279  -0.039  -2.163  1.00  0.00    -0.132 NA  
ATOM     5   N4  UNL     1      -0.779  -1.262  -2.192  1.00  0.00    -0.075 NA  
ATOM     6   H11 UNL     1      -1.807  -0.321   0.753  1.00  0.00     0.083 HD  
ENDROOT
BRANCH   1   7
ATOM     7   C8  UNL     1      -2.103  -2.761  -0.800  1.00  0.00     0.158 C   
BRANCH   7   8
ATOM     8   C7  UNL     1      -1.061  -3.852  -0.576  1.00  0.00     0.016 A   
ATOM     9   C2  UNL     1      -0.922  -4.953  -1.449  1.00  0.00    -0.043 A   
ATOM     10  C3  UNL     1       0.054  -5.928  -1.177  1.00  0.00     0.004 A   
ATOM     11  C4  UNL     1       0.885  -5.826  -0.064  1.00  0.00     0.003 A   
ATOM     12  C6  UNL     1      -0.205  -3.775   0.535  1.00  0.00     0.128 A   
ATOM     13  C5  UNL     1       0.756  -4.744   0.795  1.00  0.00     0.039 A   
ATOM     14  C1  UNL     1      -1.779  -5.120  -2.674  1.00  0.00     0.045 C   
ATOM     15  F1  UNL     1      -0.303  -2.737   1.379  1.00  0.00    -0.207 F   
ENDBRANCH   7   8
BRANCH   7  16
ATOM     16  C9  UNL     1      -3.155  -2.752   0.330  1.00  0.00     0.186 C   
BRANCH  16  17
ATOM     17  O1  UNL     1      -4.231  -1.867   0.011  1.00  0.00    -0.394 OA  
ATOM     18  H10 UNL     1      -4.952  -2.039   0.649  1.00  0.00     0.210 HD  
ENDBRANCH  16  17
ENDBRANCH   7  16
ENDBRANCH   1   7
BRANCH   3  19
ATOM     19  C12 UNL     1      -0.123   1.906  -0.635  1.00  0.00     0.120 C   
BRANCH  19  20
ATOM     20  N2  UNL     1       1.275   2.058  -1.204  1.00  0.00     0.250 N   
ATOM     21  H13 UNL     1       1.214   1.754  -2.188  1.00  0.00     0.199 HD  
ATOM     22  H14 UNL     1       1.573   3.036  -1.206  1.00  0.00     0.199 HD  
BRANCH  20  23
ATOM     23  C13 UNL     1       2.341   1.228  -0.563  1.00  0.00     0.164 C   
BRANCH  23  24
ATOM     24  C14 UNL     1       2.619   1.629   0.860  1.00  0.00    -0.002 A   
ATOM     25  C15 UNL     1       2.242   0.776   1.926  1.00  0.00     0.012 A   
ATOM     26  C19 UNL     1       3.229   2.863   1.142  1.00  0.00     0.045 A   
ATOM     27  C16 UNL     1       2.462   1.149   3.256  1.00  0.00     0.037 A   
ATOM     28  C18 UNL     1       3.429   3.200   2.464  1.00  0.00     0.109 A   
ATOM     29  C17 UNL     1       3.057   2.369   3.491  1.00  0.00     0.108 A   
ATOM     30  O2  UNL     1       3.992   4.354   2.907  1.00  0.00    -0.316 OA  
ATOM     31  O3  UNL     1       3.344   2.893   4.710  1.00  0.00    -0.316 OA  
ATOM     32  C20 UNL     1       3.975   4.137   4.336  1.00  0.00     0.337 C   
ENDBRANCH  23  24
ENDBRANCH  20  23
ENDBRANCH  19  20
BRANCH  19  33
ATOM     33  C21 UNL     1      -1.043   3.072  -1.139  1.00  0.00     0.010 C   
ATOM     34  C22 UNL     1      -1.114   3.158  -2.675  1.00  0.00     0.017 C   
ATOM     35  C23 UNL     1      -0.527   4.426  -0.600  1.00  0.00     0.017 C   
ATOM     36  C24 UNL     1      -2.479   2.890  -0.597  1.00  0.00     0.017 C   
ENDBRANCH  19  33
ENDBRANCH   3  19
TORSDOF 9
