REMARK SMILES Cc1ccc2nc(Cn3cc([C@@H]([NH2+]Cc4ccc5c(c4)OCO5)C4CCCC4)nn3)cn2c1
REMARK SMILES IDX 9 1 10 2 11 3 29 4 30 5 8 7 7 8 2 9 3 10 33 11 4 12 32 13
REMARK SMILES IDX 5 14 31 15 6 16 1 17 12 18 13 19 14 22 15 23 16 24 20 25
REMARK SMILES IDX 17 26 19 27 18 28 21 29 23 30 22 31 24 32 25 33 28 34 26 35
REMARK SMILES IDX 27 36
REMARK H PARENT 10 6 13 20 13 21
ROOT
ATOM     1   N2  UNL     1      -1.054  -0.615   2.386  1.00  0.00    -0.206 N   
ATOM     2   C8  UNL     1       0.068  -1.007   1.706  1.00  0.00     0.046 A   
ATOM     3   C9  UNL     1       1.039  -0.135   2.137  1.00  0.00     0.127 A   
ATOM     4   N4  UNL     1       0.497   0.726   3.060  1.00  0.00    -0.132 NA  
ATOM     5   N5  UNL     1      -0.781   0.421   3.206  1.00  0.00    -0.076 NA  
ATOM     6   H8  UNL     1       0.048  -1.815   0.987  1.00  0.00     0.083 HD  
ENDROOT
BRANCH   1   7
ATOM     7   C7  UNL     1      -2.385  -1.192   2.334  1.00  0.00     0.191 C   
BRANCH   7   8
ATOM     8   C6  UNL     1      -3.014  -0.919   1.015  1.00  0.00     0.077 A   
ATOM     9   C2  UNL     1      -5.165   0.198  -2.796  1.00  0.00    -0.036 A   
ATOM     10  C3  UNL     1      -4.564  -1.077  -3.191  1.00  0.00     0.008 A   
ATOM     11  C25 UNL     1      -4.944   0.646  -1.543  1.00  0.00     0.085 A   
ATOM     12  C4  UNL     1      -3.793  -1.789  -2.347  1.00  0.00     0.045 A   
ATOM     13  N6  UNL     1      -4.152  -0.103  -0.679  1.00  0.00    -0.266 N   
ATOM     14  C5  UNL     1      -3.554  -1.308  -1.028  1.00  0.00     0.128 A   
ATOM     15  C24 UNL     1      -3.803   0.146   0.626  1.00  0.00     0.107 A   
ATOM     16  N1  UNL     1      -2.854  -1.805  -0.030  1.00  0.00    -0.234 NA  
ATOM     17  C1  UNL     1      -5.992   0.929  -3.805  1.00  0.00     0.046 C   
ENDBRANCH   7   8
ENDBRANCH   1   7
BRANCH   3  18
ATOM     18  C10 UNL     1       2.466   0.041   1.735  1.00  0.00     0.117 C   
BRANCH  18  19
ATOM     19  N3  UNL     1       2.842   1.502   1.861  1.00  0.00     0.249 N   
ATOM     20  H10 UNL     1       2.135   1.915   2.490  1.00  0.00     0.199 HD  
ATOM     21  H11 UNL     1       3.734   1.617   2.349  1.00  0.00     0.199 HD  
BRANCH  19  22
ATOM     22  C11 UNL     1       2.862   2.294   0.600  1.00  0.00     0.164 C   
BRANCH  22  23
ATOM     23  C12 UNL     1       1.564   2.292  -0.158  1.00  0.00    -0.002 A   
ATOM     24  C13 UNL     1       0.406   2.898   0.388  1.00  0.00     0.012 A   
ATOM     25  C17 UNL     1       1.486   1.666  -1.414  1.00  0.00     0.045 A   
ATOM     26  C14 UNL     1      -0.814   2.872  -0.298  1.00  0.00     0.037 A   
ATOM     27  C16 UNL     1       0.271   1.663  -2.067  1.00  0.00     0.109 A   
ATOM     28  C15 UNL     1      -0.847   2.248  -1.526  1.00  0.00     0.108 A   
ATOM     29  O1  UNL     1       0.032   1.107  -3.283  1.00  0.00    -0.316 OA  
ATOM     30  O2  UNL     1      -1.934   2.133  -2.333  1.00  0.00    -0.316 OA  
ATOM     31  C18 UNL     1      -1.368   1.425  -3.457  1.00  0.00     0.337 C   
ENDBRANCH  22  23
ENDBRANCH  19  22
ENDBRANCH  18  19
BRANCH  18  32
ATOM     32  C19 UNL     1       3.410  -0.838   2.577  1.00  0.00     0.043 C   
ATOM     33  C20 UNL     1       3.502  -0.500   4.077  1.00  0.00     0.010 C   
ATOM     34  C23 UNL     1       4.864  -0.839   2.088  1.00  0.00     0.010 C   
ATOM     35  C21 UNL     1       4.971  -0.678   4.466  1.00  0.00     0.001 C   
ATOM     36  C22 UNL     1       5.628  -1.378   3.286  1.00  0.00     0.001 C   
ENDBRANCH  18  32
ENDBRANCH   3  18
TORSDOF 7
