REMARK SMILES CC(C)C[C@H]([NH2+]Cc1ccc2c(c1)OCO2)c1cn(Cc2ccc(Cl)nc2)nn1
REMARK SMILES IDX 17 1 18 2 19 3 28 4 29 5 5 7 4 8 2 9 1 10 3 11 6 12 7 15
REMARK SMILES IDX 8 16 9 17 13 18 10 19 12 20 11 21 14 22 16 23 15 24 20 25
REMARK SMILES IDX 21 26 22 27 27 28 23 29 26 30 24 31 25 32
REMARK H PARENT 18 6 6 13 6 14
ROOT
ATOM     1   C14 UNL     1      -0.481  -1.299  -0.414  1.00  0.00     0.127 A   
ATOM     2   C15 UNL     1      -1.070  -1.731  -1.583  1.00  0.00     0.046 A   
ATOM     3   N2  UNL     1      -0.159  -2.608  -2.108  1.00  0.00    -0.208 N   
ATOM     4   N4  UNL     1       0.890  -2.762  -1.280  1.00  0.00    -0.076 NA  
ATOM     5   N5  UNL     1       0.705  -1.969  -0.239  1.00  0.00    -0.132 NA  
ATOM     6   H20 UNL     1      -1.986  -1.473  -2.097  1.00  0.00     0.083 HD  
ENDROOT
BRANCH   1   7
ATOM     7   C5  UNL     1      -0.910  -0.297   0.611  1.00  0.00     0.114 C   
BRANCH   7   8
ATOM     8   C4  UNL     1      -1.397   1.044   0.026  1.00  0.00     0.064 C   
BRANCH   8   9
ATOM     9   C2  UNL     1      -0.343   2.055  -0.482  1.00  0.00    -0.012 C   
ATOM     10  C1  UNL     1       0.515   1.526  -1.630  1.00  0.00     0.007 C   
ATOM     11  C3  UNL     1      -1.050   3.340  -0.930  1.00  0.00     0.007 C   
ENDBRANCH   8   9
ENDBRANCH   7   8
BRANCH   7  12
ATOM     12  N1  UNL     1       0.194  -0.085   1.606  1.00  0.00     0.249 N   
ATOM     13  H11 UNL     1       0.600  -1.014   1.795  1.00  0.00     0.199 HD  
ATOM     14  H12 UNL     1       0.975   0.411   1.158  1.00  0.00     0.199 HD  
BRANCH  12  15
ATOM     15  C6  UNL     1      -0.161   0.549   2.896  1.00  0.00     0.164 C   
BRANCH  15  16
ATOM     16  C7  UNL     1       1.046   0.646   3.786  1.00  0.00    -0.002 A   
ATOM     17  C8  UNL     1       1.347  -0.390   4.701  1.00  0.00     0.012 A   
ATOM     18  C12 UNL     1       1.915   1.745   3.673  1.00  0.00     0.045 A   
ATOM     19  C9  UNL     1       2.492  -0.329   5.503  1.00  0.00     0.037 A   
ATOM     20  C11 UNL     1       3.035   1.772   4.478  1.00  0.00     0.109 A   
ATOM     21  C10 UNL     1       3.316   0.765   5.367  1.00  0.00     0.108 A   
ATOM     22  O1  UNL     1       3.973   2.756   4.493  1.00  0.00    -0.316 OA  
ATOM     23  O2  UNL     1       4.464   0.988   6.057  1.00  0.00    -0.316 OA  
ATOM     24  C13 UNL     1       4.874   2.260   5.510  1.00  0.00     0.337 C   
ENDBRANCH  15  16
ENDBRANCH  12  15
ENDBRANCH   7  12
ENDBRANCH   1   7
BRANCH   3  25
ATOM     25  C16 UNL     1      -0.181  -3.264  -3.406  1.00  0.00     0.171 C   
BRANCH  25  26
ATOM     26  C17 UNL     1       0.068  -2.273  -4.511  1.00  0.00    -0.010 A   
ATOM     27  C18 UNL     1      -0.870  -2.055  -5.527  1.00  0.00     0.010 A   
ATOM     28  C21 UNL     1       1.249  -1.534  -4.560  1.00  0.00     0.118 A   
ATOM     29  C19 UNL     1      -0.606  -1.113  -6.518  1.00  0.00     0.041 A   
ATOM     30  N3  UNL     1       1.520  -0.602  -5.497  1.00  0.00    -0.244 NA  
ATOM     31  C20 UNL     1       0.590  -0.419  -6.454  1.00  0.00     0.129 A   
ATOM     32  CL1 UNL     1       0.981   0.775  -7.618  1.00  0.00    -0.062 Cl  
ENDBRANCH  25  26
ENDBRANCH   3  25
TORSDOF 8
