REMARK SMILES Fc1ccc(CCn2cc([C@@H]([NH2+]Cc3ccc4c(c3)OCO4)C3CCCC3)nn2)nc1
REMARK SMILES IDX 8 1 9 2 10 3 28 4 29 5 7 7 6 8 5 9 2 10 3 11 31 12 4 13
REMARK SMILES IDX 30 14 1 15 11 16 12 17 13 20 14 21 15 22 19 23 16 24 18 25
REMARK SMILES IDX 17 26 20 27 22 28 21 29 23 30 24 31 27 32 25 33 26 34
REMARK H PARENT 9 6 12 18 12 19
ROOT
ATOM     1   N1  UNL     1       1.413   1.079   2.205  1.00  0.00    -0.212 N   
ATOM     2   C7  UNL     1       1.502  -0.061   1.460  1.00  0.00     0.045 A   
ATOM     3   C8  UNL     1       1.504   0.390   0.160  1.00  0.00     0.127 A   
ATOM     4   N3  UNL     1       1.436   1.760   0.158  1.00  0.00    -0.132 NA  
ATOM     5   N4  UNL     1       1.371   2.169   1.415  1.00  0.00    -0.076 NA  
ATOM     6   H7  UNL     1       1.525  -1.044   1.910  1.00  0.00     0.083 HD  
ENDROOT
BRANCH   1   7
ATOM     7   C6  UNL     1       1.360   1.210   3.646  1.00  0.00     0.140 C   
BRANCH   7   8
ATOM     8   C5  UNL     1      -0.025   1.606   4.159  1.00  0.00     0.077 C   
BRANCH   8   9
ATOM     9   C4  UNL     1      -1.093   0.551   3.973  1.00  0.00     0.042 A   
ATOM     10  C1  UNL     1      -3.022  -1.388   3.761  1.00  0.00     0.141 A   
ATOM     11  C2  UNL     1      -3.415  -0.081   3.988  1.00  0.00     0.043 A   
ATOM     12  C23 UNL     1      -1.673  -1.669   3.654  1.00  0.00     0.150 A   
ATOM     13  C3  UNL     1      -2.437   0.906   4.106  1.00  0.00     0.027 A   
ATOM     14  N5  UNL     1      -0.701  -0.727   3.740  1.00  0.00    -0.258 NA  
ATOM     15  F1  UNL     1      -3.932  -2.360   3.637  1.00  0.00    -0.205 F   
ENDBRANCH   8   9
ENDBRANCH   7   8
ENDBRANCH   1   7
BRANCH   3  16
ATOM     16  C9  UNL     1       1.501  -0.355  -1.133  1.00  0.00     0.117 C   
BRANCH  16  17
ATOM     17  N2  UNL     1       0.601   0.342  -2.134  1.00  0.00     0.249 N   
ATOM     18  H9  UNL     1       0.691  -0.089  -3.056  1.00  0.00     0.199 HD  
ATOM     19  H10 UNL     1       0.948   1.308  -2.208  1.00  0.00     0.199 HD  
BRANCH  17  20
ATOM     20  C10 UNL     1      -0.849   0.423  -1.781  1.00  0.00     0.164 C   
BRANCH  20  21
ATOM     21  C11 UNL     1      -1.505  -0.923  -1.648  1.00  0.00    -0.002 A   
ATOM     22  C12 UNL     1      -1.915  -1.391  -0.376  1.00  0.00     0.012 A   
ATOM     23  C16 UNL     1      -1.696  -1.736  -2.779  1.00  0.00     0.045 A   
ATOM     24  C13 UNL     1      -2.505  -2.651  -0.229  1.00  0.00     0.037 A   
ATOM     25  C15 UNL     1      -2.276  -2.974  -2.598  1.00  0.00     0.109 A   
ATOM     26  C14 UNL     1      -2.669  -3.420  -1.360  1.00  0.00     0.108 A   
ATOM     27  O1  UNL     1      -2.524  -3.881  -3.579  1.00  0.00    -0.316 OA  
ATOM     28  O2  UNL     1      -3.215  -4.662  -1.405  1.00  0.00    -0.316 OA  
ATOM     29  C17 UNL     1      -3.151  -4.941  -2.821  1.00  0.00     0.337 C   
ENDBRANCH  20  21
ENDBRANCH  17  20
ENDBRANCH  16  17
BRANCH  16  30
ATOM     30  C18 UNL     1       2.913  -0.455  -1.745  1.00  0.00     0.043 C   
ATOM     31  C19 UNL     1       2.974  -1.230  -3.067  1.00  0.00     0.010 C   
ATOM     32  C22 UNL     1       3.902  -1.235  -0.873  1.00  0.00     0.010 C   
ATOM     33  C20 UNL     1       4.410  -1.737  -3.186  1.00  0.00     0.001 C   
ATOM     34  C21 UNL     1       5.056  -1.523  -1.821  1.00  0.00     0.001 C   
ENDBRANCH  16  30
ENDBRANCH   3  16
TORSDOF 8
