REMARK SMILES Cc1n[nH]c(C2CC2)c1Cn1cc([C@H](CC(C)C)[NH2+]Cc2ccc3c(c2)OCO3)nn1
REMARK SMILES IDX 11 1 12 2 13 3 30 4 31 5 10 7 9 8 2 9 3 10 4 11 5 12 1 13
REMARK SMILES IDX 6 15 7 16 8 17 14 18 15 19 16 20 17 21 18 22 19 23 20 26
REMARK SMILES IDX 21 27 22 28 26 29 23 30 25 31 24 32 27 33 29 34 28 35
REMARK H PARENT 12 6 4 14 19 24 19 25
ROOT
ATOM     1   N3  UNL     1       1.490   0.143   1.679  1.00  0.00    -0.208 N   
ATOM     2   C9  UNL     1       1.596   0.469   0.353  1.00  0.00     0.046 A   
ATOM     3   C10 UNL     1       0.326   0.870   0.002  1.00  0.00     0.127 A   
ATOM     4   N5  UNL     1      -0.494   0.776   1.098  1.00  0.00    -0.132 NA  
ATOM     5   N6  UNL     1       0.226   0.330   2.114  1.00  0.00    -0.076 NA  
ATOM     6   H12 UNL     1       2.529   0.385  -0.189  1.00  0.00     0.083 HD  
ENDROOT
BRANCH   1   7
ATOM     7   C8  UNL     1       2.527  -0.324   2.590  1.00  0.00     0.173 C   
BRANCH   7   8
ATOM     8   C7  UNL     1       3.168  -1.567   2.080  1.00  0.00     0.013 A   
ATOM     9   C2  UNL     1       2.551  -2.838   1.866  1.00  0.00     0.062 A   
ATOM     10  N1  UNL     1       3.412  -3.735   1.373  1.00  0.00    -0.189 NA  
ATOM     11  N2  UNL     1       4.586  -3.085   1.342  1.00  0.00    -0.242 N   
ATOM     12  C3  UNL     1       4.487  -1.782   1.735  1.00  0.00     0.035 A   
ATOM     13  C1  UNL     1       1.140  -3.232   2.116  1.00  0.00     0.069 C   
ATOM     14  H4  UNL     1       5.415  -3.591   1.042  1.00  0.00     0.175 HD  
BRANCH  12  15
ATOM     15  C4  UNL     1       5.671  -0.793   1.843  1.00  0.00     0.036 C   
ATOM     16  C5  UNL     1       6.624  -0.677   0.682  1.00  0.00     0.010 C   
ATOM     17  C6  UNL     1       5.691   0.452   0.998  1.00  0.00     0.010 C   
ENDBRANCH  12  15
ENDBRANCH   7   8
ENDBRANCH   1   7
BRANCH   3  18
ATOM     18  C11 UNL     1      -0.238   1.361  -1.295  1.00  0.00     0.114 C   
BRANCH  18  19
ATOM     19  C12 UNL     1       0.171   2.824  -1.557  1.00  0.00     0.064 C   
BRANCH  19  20
ATOM     20  C13 UNL     1      -0.201   3.382  -2.949  1.00  0.00    -0.012 C   
ATOM     21  C14 UNL     1       0.079   4.886  -2.993  1.00  0.00     0.007 C   
ATOM     22  C15 UNL     1       0.566   2.682  -4.071  1.00  0.00     0.007 C   
ENDBRANCH  19  20
ENDBRANCH  18  19
BRANCH  18  23
ATOM     23  N4  UNL     1      -1.742   1.277  -1.244  1.00  0.00     0.249 N   
ATOM     24  H23 UNL     1      -2.205   2.047  -1.737  1.00  0.00     0.199 HD  
ATOM     25  H24 UNL     1      -1.999   1.401  -0.249  1.00  0.00     0.199 HD  
BRANCH  23  26
ATOM     26  C16 UNL     1      -2.322  -0.018  -1.686  1.00  0.00     0.164 C   
BRANCH  26  27
ATOM     27  C17 UNL     1      -3.792  -0.064  -1.385  1.00  0.00    -0.002 A   
ATOM     28  C18 UNL     1      -4.245  -0.559  -0.138  1.00  0.00     0.012 A   
ATOM     29  C22 UNL     1      -4.722   0.447  -2.308  1.00  0.00     0.045 A   
ATOM     30  C19 UNL     1      -5.607  -0.562   0.181  1.00  0.00     0.037 A   
ATOM     31  C21 UNL     1      -6.056   0.432  -1.960  1.00  0.00     0.109 A   
ATOM     32  C20 UNL     1      -6.487  -0.059  -0.751  1.00  0.00     0.108 A   
ATOM     33  O1  UNL     1      -7.081   0.890  -2.730  1.00  0.00    -0.316 OA  
ATOM     34  O2  UNL     1      -7.835   0.025  -0.607  1.00  0.00    -0.316 OA  
ATOM     35  C23 UNL     1      -8.215   0.595  -1.883  1.00  0.00     0.337 C   
ENDBRANCH  26  27
ENDBRANCH  23  26
ENDBRANCH  18  23
ENDBRANCH   3  18
TORSDOF 9
