REMARK SMILES Cc1nc(-n2cc([C@@H]([NH2+]Cc3ccc4c(c3)OCO4)C(C)(C)C)nn2)sc1C
REMARK SMILES IDX 8 1 7 2 5 3 6 4 25 5 24 6 4 7 2 8 3 9 27 10 26 11 1 12 28 13
REMARK SMILES IDX 9 14 10 17 11 18 12 19 16 20 13 21 15 22 14 23 17 24 19 25
REMARK SMILES IDX 18 26 20 27 21 28 22 29 23 30
REMARK H PARENT 9 15 9 16
ROOT
ATOM     1   C6  UNL     1       1.477   1.542  -0.884  1.00  0.00     0.120 C   
ENDROOT
BRANCH   1   2
ATOM     2   C5  UNL     1       0.647   1.143   0.301  1.00  0.00     0.128 A   
ATOM     3   N2  UNL     1      -0.211   0.633   2.250  1.00  0.00    -0.156 N   
ATOM     4   C4  UNL     1       0.926   1.141   1.648  1.00  0.00     0.137 A   
ATOM     5   N5  UNL     1      -1.111   0.304   1.288  1.00  0.00    -0.069 NA  
ATOM     6   N4  UNL     1      -0.602   0.615   0.105  1.00  0.00    -0.131 NA  
BRANCH   3   7
ATOM     7   C3  UNL     1      -0.457   0.437   3.604  1.00  0.00     0.185 A   
ATOM     8   C2  UNL     1      -0.100   0.434   5.778  1.00  0.00     0.050 A   
ATOM     9   N1  UNL     1       0.429   0.735   4.529  1.00  0.00    -0.229 NA  
ATOM     10  C19 UNL     1      -1.384  -0.092   5.755  1.00  0.00     0.011 A   
ATOM     11  S1  UNL     1      -1.936  -0.210   4.131  1.00  0.00    -0.055 S   
ATOM     12  C1  UNL     1       0.733   0.698   6.983  1.00  0.00     0.068 C   
ATOM     13  C20 UNL     1      -2.262  -0.528   6.876  1.00  0.00     0.054 C   
ENDBRANCH   3   7
ENDBRANCH   1   2
BRANCH   1  14
ATOM     14  N3  UNL     1       1.150   0.624  -2.039  1.00  0.00     0.250 N   
ATOM     15  H6  UNL     1       1.435   1.012  -2.942  1.00  0.00     0.199 HD  
ATOM     16  H7  UNL     1       0.122   0.546  -2.077  1.00  0.00     0.199 HD  
BRANCH  14  17
ATOM     17  C7  UNL     1       1.691  -0.761  -1.931  1.00  0.00     0.164 C   
BRANCH  17  18
ATOM     18  C8  UNL     1       1.252  -1.587  -3.107  1.00  0.00    -0.002 A   
ATOM     19  C9  UNL     1       2.080  -1.709  -4.248  1.00  0.00     0.012 A   
ATOM     20  C13 UNL     1      -0.014  -2.199  -3.099  1.00  0.00     0.045 A   
ATOM     21  C10 UNL     1       1.659  -2.440  -5.364  1.00  0.00     0.037 A   
ATOM     22  C12 UNL     1      -0.397  -2.911  -4.216  1.00  0.00     0.109 A   
ATOM     23  C11 UNL     1       0.415  -3.029  -5.317  1.00  0.00     0.108 A   
ATOM     24  O1  UNL     1      -1.581  -3.560  -4.373  1.00  0.00    -0.316 OA  
ATOM     25  O2  UNL     1      -0.153  -3.768  -6.304  1.00  0.00    -0.316 OA  
ATOM     26  C14 UNL     1      -1.413  -4.123  -5.693  1.00  0.00     0.337 C   
ENDBRANCH  17  18
ENDBRANCH  14  17
ENDBRANCH   1  14
BRANCH   1  27
ATOM     27  C15 UNL     1       1.302   3.041  -1.315  1.00  0.00     0.010 C   
ATOM     28  C16 UNL     1      -0.123   3.353  -1.815  1.00  0.00     0.017 C   
ATOM     29  C17 UNL     1       1.616   3.980  -0.127  1.00  0.00     0.017 C   
ATOM     30  C18 UNL     1       2.301   3.397  -2.441  1.00  0.00     0.017 C   
ENDBRANCH   1  27
TORSDOF 6
