REMARK SMILES CNc1ccc(-n2cc([C@H](CC(C)C)[NH2+]Cc3ccc4c(c3)OCO4)nn2)cc1
REMARK SMILES IDX 7 1 8 2 9 3 26 4 27 5 6 6 3 7 4 8 29 9 5 10 28 11 2 12 1 13
REMARK SMILES IDX 10 15 11 16 12 17 13 18 14 19 15 20 16 23 17 24 18 25 22 26
REMARK SMILES IDX 19 27 21 28 20 29 23 30 25 31 24 32
REMARK H PARENT 2 14 15 21 15 22
ROOT
ATOM     1   N2  UNL     1      -1.028  -0.700   0.141  1.00  0.00    -0.181 N   
ATOM     2   C6  UNL     1      -0.360   0.488   0.368  1.00  0.00     0.135 A   
ATOM     3   C7  UNL     1      -0.954   1.395  -0.481  1.00  0.00     0.127 A   
ATOM     4   N4  UNL     1      -1.987   0.789  -1.136  1.00  0.00    -0.131 NA  
ATOM     5   N5  UNL     1      -2.040  -0.471  -0.737  1.00  0.00    -0.071 NA  
ENDROOT
BRANCH   1   6
ATOM     6   C5  UNL     1      -0.739  -1.995   0.634  1.00  0.00     0.058 A   
ATOM     7   C2  UNL     1      -0.158  -4.617   1.542  1.00  0.00     0.026 A   
ATOM     8   C3  UNL     1      -1.233  -4.373   0.682  1.00  0.00     0.025 A   
ATOM     9   C22 UNL     1       0.644  -3.525   1.902  1.00  0.00     0.025 A   
ATOM     10  C4  UNL     1      -1.534  -3.078   0.241  1.00  0.00     0.028 A   
ATOM     11  C21 UNL     1       0.357  -2.224   1.470  1.00  0.00     0.028 A   
BRANCH   7  12
ATOM     12  N1  UNL     1       0.241  -5.894   1.940  1.00  0.00    -0.348 N   
ATOM     13  C1  UNL     1      -0.697  -7.002   1.869  1.00  0.00     0.126 C   
ATOM     14  H4  UNL     1       0.758  -5.881   2.817  1.00  0.00     0.146 HD  
ENDBRANCH   7  12
ENDBRANCH   1   6
BRANCH   3  15
ATOM     15  C8  UNL     1      -0.579   2.789  -0.859  1.00  0.00     0.114 C   
BRANCH  15  16
ATOM     16  C9  UNL     1      -1.615   3.829  -0.394  1.00  0.00     0.064 C   
BRANCH  16  17
ATOM     17  C10 UNL     1      -1.802   3.923   1.136  1.00  0.00    -0.012 C   
ATOM     18  C11 UNL     1      -2.902   4.938   1.460  1.00  0.00     0.007 C   
ATOM     19  C12 UNL     1      -0.511   4.313   1.859  1.00  0.00     0.007 C   
ENDBRANCH  16  17
ENDBRANCH  15  16
BRANCH  15  20
ATOM     20  N3  UNL     1      -0.500   2.874  -2.377  1.00  0.00     0.249 N   
ATOM     21  H18 UNL     1      -1.165   2.170  -2.736  1.00  0.00     0.199 HD  
ATOM     22  H19 UNL     1      -0.855   3.778  -2.704  1.00  0.00     0.199 HD  
BRANCH  20  23
ATOM     23  C13 UNL     1       0.837   2.628  -2.997  1.00  0.00     0.164 C   
BRANCH  23  24
ATOM     24  C14 UNL     1       1.467   1.315  -2.624  1.00  0.00    -0.002 A   
ATOM     25  C15 UNL     1       2.607   1.285  -1.784  1.00  0.00     0.012 A   
ATOM     26  C19 UNL     1       0.904   0.103  -3.064  1.00  0.00     0.045 A   
ATOM     27  C16 UNL     1       3.160   0.072  -1.361  1.00  0.00     0.037 A   
ATOM     28  C18 UNL     1       1.468  -1.076  -2.620  1.00  0.00     0.109 A   
ATOM     29  C17 UNL     1       2.560  -1.091  -1.788  1.00  0.00     0.108 A   
ATOM     30  O1  UNL     1       1.022  -2.325  -2.912  1.00  0.00    -0.316 OA  
ATOM     31  O2  UNL     1       2.938  -2.351  -1.451  1.00  0.00    -0.316 OA  
ATOM     32  C20 UNL     1       1.962  -3.136  -2.171  1.00  0.00     0.337 C   
ENDBRANCH  23  24
ENDBRANCH  20  23
ENDBRANCH  15  20
ENDBRANCH   3  15
TORSDOF 8
