REMARK SMILES CC(C)[C@H]([NH2+]Cc1ccc2c(c1)OCO2)c1cn(CCc2cccc(Cl)c2O)nn1
REMARK SMILES IDX 16 1 17 2 18 3 29 4 30 5 4 7 2 8 1 9 3 10 5 11 6 14 7 15
REMARK SMILES IDX 8 16 12 17 9 18 11 19 10 20 13 21 15 22 14 23 19 24 20 25
REMARK SMILES IDX 21 26 22 27 27 28 23 29 25 30 24 31 26 32 28 33
REMARK H PARENT 17 6 5 12 5 13 28 34
ROOT
ATOM     1   C13 UNL     1      -1.072  -1.092   1.744  1.00  0.00     0.127 A   
ATOM     2   C14 UNL     1      -1.208  -0.234   2.812  1.00  0.00     0.045 A   
ATOM     3   N2  UNL     1       0.060  -0.132   3.313  1.00  0.00    -0.212 N   
ATOM     4   N3  UNL     1       0.922  -0.883   2.604  1.00  0.00    -0.076 NA  
ATOM     5   N4  UNL     1       0.241  -1.477   1.639  1.00  0.00    -0.132 NA  
ATOM     6   H18 UNL     1      -2.042   0.308   3.235  1.00  0.00     0.083 HD  
ENDROOT
BRANCH   1   7
ATOM     7   C4  UNL     1      -2.062  -1.571   0.732  1.00  0.00     0.117 C   
BRANCH   7   8
ATOM     8   C2  UNL     1      -2.824  -2.836   1.206  1.00  0.00     0.037 C   
ATOM     9   C1  UNL     1      -4.043  -3.125   0.321  1.00  0.00     0.014 C   
ATOM     10  C3  UNL     1      -1.950  -4.092   1.305  1.00  0.00     0.014 C   
ENDBRANCH   7   8
BRANCH   7  11
ATOM     11  N1  UNL     1      -1.372  -1.833  -0.580  1.00  0.00     0.249 N   
ATOM     12  H9  UNL     1      -0.508  -2.350  -0.358  1.00  0.00     0.199 HD  
ATOM     13  H10 UNL     1      -1.921  -2.440  -1.194  1.00  0.00     0.199 HD  
BRANCH  11  14
ATOM     14  C5  UNL     1      -0.968  -0.612  -1.332  1.00  0.00     0.164 C   
BRANCH  14  15
ATOM     15  C6  UNL     1      -0.206  -0.987  -2.572  1.00  0.00    -0.002 A   
ATOM     16  C7  UNL     1      -0.870  -1.107  -3.815  1.00  0.00     0.012 A   
ATOM     17  C11 UNL     1       1.168  -1.270  -2.489  1.00  0.00     0.045 A   
ATOM     18  C8  UNL     1      -0.174  -1.495  -4.965  1.00  0.00     0.037 A   
ATOM     19  C10 UNL     1       1.824  -1.650  -3.641  1.00  0.00     0.109 A   
ATOM     20  C9  UNL     1       1.172  -1.760  -4.845  1.00  0.00     0.108 A   
ATOM     21  O1  UNL     1       3.144  -1.957  -3.735  1.00  0.00    -0.316 OA  
ATOM     22  O2  UNL     1       2.001  -2.149  -5.849  1.00  0.00    -0.316 OA  
ATOM     23  C12 UNL     1       3.257  -2.257  -5.145  1.00  0.00     0.337 C   
ENDBRANCH  14  15
ENDBRANCH  11  14
ENDBRANCH   7  11
ENDBRANCH   1   7
BRANCH   3  24
ATOM     24  C15 UNL     1       0.518   0.681   4.420  1.00  0.00     0.139 C   
BRANCH  24  25
ATOM     25  C16 UNL     1       1.381   1.864   3.977  1.00  0.00     0.059 C   
BRANCH  25  26
ATOM     26  C17 UNL     1       0.717   2.789   2.980  1.00  0.00    -0.015 A   
ATOM     27  C18 UNL     1       1.244   2.909   1.684  1.00  0.00     0.006 A   
ATOM     28  C22 UNL     1      -0.409   3.551   3.314  1.00  0.00     0.093 A   
ATOM     29  C19 UNL     1       0.661   3.769   0.749  1.00  0.00     0.002 A   
ATOM     30  C21 UNL     1      -0.995   4.411   2.377  1.00  0.00     0.071 A   
ATOM     31  C20 UNL     1      -0.461   4.521   1.096  1.00  0.00     0.023 A   
ATOM     32  CL1 UNL     1      -2.391   5.332   2.795  1.00  0.00    -0.081 Cl  
BRANCH  28  33
ATOM     33  O3  UNL     1      -0.922   3.434   4.579  1.00  0.00    -0.359 OA  
ATOM     34  H26 UNL     1      -1.586   4.144   4.689  1.00  0.00     0.218 HD  
ENDBRANCH  28  33
ENDBRANCH  25  26
ENDBRANCH  24  25
ENDBRANCH   3  24
TORSDOF 9
