REMARK SMILES CC(C)[C@H]([NH2+]Cc1ccc2c(c1)OCO2)c1cn(-c2cccc(CN)c2)nn1
REMARK SMILES IDX 16 1 17 2 18 3 27 4 28 5 4 6 2 7 1 8 3 9 5 10 6 13 7 14 8 15
REMARK SMILES IDX 12 16 9 17 11 18 10 19 13 20 15 21 14 22 19 23 20 24 26 25
REMARK SMILES IDX 21 26 23 27 22 28 24 29 25 30
REMARK H PARENT 5 11 5 12 25 31 25 32
ROOT
ATOM     1   C13 UNL     1       0.966  -0.284  -0.720  1.00  0.00     0.127 A   
ATOM     2   C14 UNL     1       0.126  -1.331  -0.414  1.00  0.00     0.135 A   
ATOM     3   N2  UNL     1       0.921  -2.252   0.242  1.00  0.00    -0.181 N   
ATOM     4   N4  UNL     1       2.181  -1.748   0.336  1.00  0.00    -0.071 NA  
ATOM     5   N5  UNL     1       2.219  -0.565  -0.253  1.00  0.00    -0.131 NA  
ENDROOT
BRANCH   1   6
ATOM     6   C4  UNL     1       0.708   1.018  -1.410  1.00  0.00     0.117 C   
BRANCH   6   7
ATOM     7   C2  UNL     1       0.690   0.869  -2.955  1.00  0.00     0.037 C   
ATOM     8   C1  UNL     1       0.103   2.111  -3.636  1.00  0.00     0.014 C   
ATOM     9   C3  UNL     1       2.057   0.540  -3.566  1.00  0.00     0.014 C   
ENDBRANCH   6   7
BRANCH   6  10
ATOM     10  N1  UNL     1       1.735   2.047  -0.998  1.00  0.00     0.249 N   
ATOM     11  H9  UNL     1       1.776   2.816  -1.672  1.00  0.00     0.199 HD  
ATOM     12  H10 UNL     1       2.648   1.571  -1.027  1.00  0.00     0.199 HD  
BRANCH  10  13
ATOM     13  C5  UNL     1       1.581   2.616   0.375  1.00  0.00     0.164 C   
BRANCH  13  14
ATOM     14  C6  UNL     1       0.375   3.504   0.503  1.00  0.00    -0.002 A   
ATOM     15  C7  UNL     1      -0.739   3.089   1.272  1.00  0.00     0.012 A   
ATOM     16  C11 UNL     1       0.332   4.743  -0.162  1.00  0.00     0.045 A   
ATOM     17  C8  UNL     1      -1.883   3.889   1.372  1.00  0.00     0.037 A   
ATOM     18  C10 UNL     1      -0.811   5.505  -0.044  1.00  0.00     0.109 A   
ATOM     19  C9  UNL     1      -1.888   5.090   0.700  1.00  0.00     0.108 A   
ATOM     20  O1  UNL     1      -1.016   6.715  -0.626  1.00  0.00    -0.316 OA  
ATOM     21  O2  UNL     1      -2.907   5.988   0.681  1.00  0.00    -0.316 OA  
ATOM     22  C12 UNL     1      -2.340   7.034  -0.137  1.00  0.00     0.337 C   
ENDBRANCH  13  14
ENDBRANCH  10  13
ENDBRANCH   6  10
ENDBRANCH   1   6
BRANCH   3  23
ATOM     23  C15 UNL     1       0.572  -3.516   0.776  1.00  0.00     0.058 A   
ATOM     24  C16 UNL     1       1.545  -4.288   1.425  1.00  0.00     0.026 A   
ATOM     25  C21 UNL     1      -0.738  -4.004   0.669  1.00  0.00     0.031 A   
ATOM     26  C17 UNL     1       1.208  -5.531   1.962  1.00  0.00     0.002 A   
ATOM     27  C19 UNL     1      -1.085  -5.252   1.217  1.00  0.00    -0.032 A   
ATOM     28  C18 UNL     1      -0.098  -6.011   1.859  1.00  0.00     0.005 A   
BRANCH  27  29
ATOM     29  C20 UNL     1      -2.495  -5.777   1.088  1.00  0.00     0.113 C   
BRANCH  29  30
ATOM     30  N3  UNL     1      -3.468  -4.816   1.599  1.00  0.00    -0.327 NA  
ATOM     31  H24 UNL     1      -4.399  -5.228   1.527  1.00  0.00     0.119 HD  
ATOM     32  H25 UNL     1      -3.303  -4.694   2.599  1.00  0.00     0.119 HD  
ENDBRANCH  29  30
ENDBRANCH  27  29
ENDBRANCH   3  23
TORSDOF 8
