REMARK SMILES Cc1nn(C)c(C)c1Cn1cc([C@@H]([NH2+]Cc2ccc3c(c2)OCO3)C2CCCCC2)nn1
REMARK SMILES IDX 10 1 11 2 12 3 31 4 32 5 9 7 8 8 2 9 3 10 4 11 6 12 1 13
REMARK SMILES IDX 5 14 7 15 13 16 14 17 15 20 16 21 17 22 21 23 18 24 20 25
REMARK SMILES IDX 19 26 22 27 24 28 23 29 25 30 26 31 30 32 27 33 29 34 28 35
REMARK H PARENT 11 6 14 18 14 19
ROOT
ATOM     1   N3  UNL     1       1.703   1.980  -0.995  1.00  0.00    -0.208 N   
ATOM     2   C8  UNL     1       1.649   0.662  -1.367  1.00  0.00     0.046 A   
ATOM     3   C9  UNL     1       2.322   0.002  -0.361  1.00  0.00     0.127 A   
ATOM     4   N5  UNL     1       2.795   0.925   0.537  1.00  0.00    -0.132 NA  
ATOM     5   N6  UNL     1       2.422   2.127   0.134  1.00  0.00    -0.076 NA  
ATOM     6   H12 UNL     1       1.091   0.332  -2.232  1.00  0.00     0.083 HD  
ENDROOT
BRANCH   1   7
ATOM     7   C7  UNL     1       0.969   3.102  -1.563  1.00  0.00     0.173 C   
BRANCH   7   8
ATOM     8   C6  UNL     1      -0.432   3.075  -1.049  1.00  0.00     0.013 A   
ATOM     9   C2  UNL     1      -1.575   2.515  -1.685  1.00  0.00     0.062 A   
ATOM     10  N1  UNL     1      -2.651   2.570  -0.897  1.00  0.00    -0.187 NA  
ATOM     11  N2  UNL     1      -2.246   3.248   0.191  1.00  0.00    -0.232 N   
ATOM     12  C4  UNL     1      -0.912   3.566   0.159  1.00  0.00     0.031 A   
ATOM     13  C1  UNL     1      -1.684   1.895  -3.029  1.00  0.00     0.069 C   
ATOM     14  C3  UNL     1      -3.212   3.529   1.228  1.00  0.00     0.159 C   
ATOM     15  C5  UNL     1      -0.222   4.287   1.262  1.00  0.00     0.064 C   
ENDBRANCH   7   8
ENDBRANCH   1   7
BRANCH   3  16
ATOM     16  C10 UNL     1       2.445  -1.448  -0.000  1.00  0.00     0.117 C   
BRANCH  16  17
ATOM     17  N4  UNL     1       1.594  -1.671   1.230  1.00  0.00     0.249 N   
ATOM     18  H14 UNL     1       1.845  -0.892   1.861  1.00  0.00     0.199 HD  
ATOM     19  H15 UNL     1       1.876  -2.517   1.733  1.00  0.00     0.199 HD  
BRANCH  17  20
ATOM     20  C11 UNL     1       0.110  -1.625   1.072  1.00  0.00     0.164 C   
BRANCH  20  21
ATOM     21  C12 UNL     1      -0.548  -1.188   2.350  1.00  0.00    -0.002 A   
ATOM     22  C13 UNL     1      -0.746  -2.101   3.412  1.00  0.00     0.012 A   
ATOM     23  C17 UNL     1      -0.922   0.159   2.513  1.00  0.00     0.045 A   
ATOM     24  C14 UNL     1      -1.310  -1.679   4.622  1.00  0.00     0.037 A   
ATOM     25  C16 UNL     1      -1.478   0.541   3.716  1.00  0.00     0.109 A   
ATOM     26  C15 UNL     1      -1.661  -0.351   4.744  1.00  0.00     0.108 A   
ATOM     27  O1  UNL     1      -1.889   1.795   4.036  1.00  0.00    -0.316 OA  
ATOM     28  O2  UNL     1      -2.205   0.229   5.844  1.00  0.00    -0.316 OA  
ATOM     29  C18 UNL     1      -2.360   1.590   5.389  1.00  0.00     0.337 C   
ENDBRANCH  20  21
ENDBRANCH  17  20
ENDBRANCH  16  17
BRANCH  16  30
ATOM     30  C19 UNL     1       2.131  -2.473  -1.119  1.00  0.00     0.043 C   
ATOM     31  C20 UNL     1       2.191  -3.931  -0.612  1.00  0.00     0.010 C   
ATOM     32  C24 UNL     1       3.120  -2.318  -2.298  1.00  0.00     0.010 C   
ATOM     33  C21 UNL     1       1.919  -4.940  -1.727  1.00  0.00     0.001 C   
ATOM     34  C23 UNL     1       2.847  -3.323  -3.416  1.00  0.00     0.001 C   
ATOM     35  C22 UNL     1       2.872  -4.757  -2.901  1.00  0.00     0.000 C   
ENDBRANCH  16  30
ENDBRANCH   3  16
TORSDOF 7
