REMARK SMILES Cc1ccc(C(=O)Cn2cc([C@@H]([NH2+]Cc3ccc4c(c3)OCO4)C3CCCC3)nn2)c(C)c1
REMARK SMILES IDX 9 1 10 2 11 3 29 4 30 5 8 7 6 8 7 9 5 10 2 11 3 12 33 13
REMARK SMILES IDX 4 14 31 15 1 16 32 17 12 18 13 19 14 22 15 23 16 24 20 25
REMARK SMILES IDX 17 26 19 27 18 28 21 29 23 30 22 31 24 32 25 33 28 34 26 35
REMARK SMILES IDX 27 36
REMARK H PARENT 10 6 13 20 13 21
ROOT
ATOM     1   N1  UNL     1       2.217   0.219  -0.091  1.00  0.00    -0.204 N   
ATOM     2   C8  UNL     1       1.681   1.327   0.504  1.00  0.00     0.046 A   
ATOM     3   C9  UNL     1       0.543   0.857   1.120  1.00  0.00     0.127 A   
ATOM     4   N3  UNL     1       0.450  -0.498   0.917  1.00  0.00    -0.132 NA  
ATOM     5   N4  UNL     1       1.477  -0.875   0.170  1.00  0.00    -0.076 NA  
ATOM     6   H8  UNL     1       2.123   2.309   0.398  1.00  0.00     0.083 HD  
ENDROOT
BRANCH   1   7
ATOM     7   C7  UNL     1       3.400   0.131  -0.920  1.00  0.00     0.214 C   
BRANCH   7   8
ATOM     8   C6  UNL     1       3.112   0.670  -2.300  1.00  0.00     0.182 C   
ATOM     9   O1  UNL     1       2.660   1.799  -2.479  1.00  0.00    -0.292 OA  
BRANCH   8  10
ATOM     10  C5  UNL     1       3.402  -0.205  -3.465  1.00  0.00     0.022 A   
ATOM     11  C2  UNL     1       3.860  -1.895  -5.658  1.00  0.00    -0.051 A   
ATOM     12  C3  UNL     1       3.128  -2.352  -4.558  1.00  0.00     0.004 A   
ATOM     13  C26 UNL     1       4.368  -0.590  -5.648  1.00  0.00     0.007 A   
ATOM     14  C4  UNL     1       2.893  -1.511  -3.468  1.00  0.00     0.012 A   
ATOM     15  C24 UNL     1       4.148   0.270  -4.558  1.00  0.00    -0.040 A   
ATOM     16  C1  UNL     1       4.124  -2.811  -6.819  1.00  0.00     0.044 C   
ATOM     17  C25 UNL     1       4.698   1.669  -4.612  1.00  0.00     0.045 C   
ENDBRANCH   8  10
ENDBRANCH   7   8
ENDBRANCH   1   7
BRANCH   3  18
ATOM     18  C10 UNL     1      -0.525   1.571   1.887  1.00  0.00     0.117 C   
BRANCH  18  19
ATOM     19  N2  UNL     1      -1.785   0.749   1.913  1.00  0.00     0.249 N   
ATOM     20  H10 UNL     1      -1.497  -0.225   2.092  1.00  0.00     0.199 HD  
ATOM     21  H11 UNL     1      -2.409   1.011   2.681  1.00  0.00     0.199 HD  
BRANCH  19  22
ATOM     22  C11 UNL     1      -2.563   0.744   0.641  1.00  0.00     0.164 C   
BRANCH  22  23
ATOM     23  C12 UNL     1      -3.714  -0.219   0.734  1.00  0.00    -0.002 A   
ATOM     24  C13 UNL     1      -3.494  -1.605   0.547  1.00  0.00     0.012 A   
ATOM     25  C17 UNL     1      -5.002   0.241   1.053  1.00  0.00     0.045 A   
ATOM     26  C14 UNL     1      -4.542  -2.522   0.670  1.00  0.00     0.037 A   
ATOM     27  C16 UNL     1      -6.014  -0.690   1.163  1.00  0.00     0.109 A   
ATOM     28  C15 UNL     1      -5.791  -2.032   0.979  1.00  0.00     0.108 A   
ATOM     29  O2  UNL     1      -7.311  -0.415   1.458  1.00  0.00    -0.316 OA  
ATOM     30  O3  UNL     1      -6.920  -2.772   1.134  1.00  0.00    -0.316 OA  
ATOM     31  C18 UNL     1      -7.888  -1.740   1.423  1.00  0.00     0.337 C   
ENDBRANCH  22  23
ENDBRANCH  19  22
ENDBRANCH  18  19
BRANCH  18  32
ATOM     32  C19 UNL     1      -0.059   1.910   3.315  1.00  0.00     0.043 C   
ATOM     33  C20 UNL     1      -0.983   2.856   4.087  1.00  0.00     0.010 C   
ATOM     34  C23 UNL     1       0.078   0.736   4.288  1.00  0.00     0.010 C   
ATOM     35  C21 UNL     1      -0.498   2.754   5.532  1.00  0.00     0.001 C   
ATOM     36  C22 UNL     1       0.232   1.416   5.646  1.00  0.00     0.001 C   
ENDBRANCH  18  32
ENDBRANCH   3  18
TORSDOF 8
