REMARK SMILES OC[C@@H](c1cccnc1F)n1cc([C@@H]([NH2+]Cc2ccc3c(c2)OCO3)C2CCCC2)nn1
REMARK SMILES IDX 11 1 12 2 13 3 31 4 32 5 3 7 2 8 1 9 4 11 5 12 9 13 6 14
REMARK SMILES IDX 8 15 7 16 10 17 14 18 15 19 16 22 17 23 18 24 22 25 19 26
REMARK SMILES IDX 21 27 20 28 23 29 25 30 24 31 26 32 27 33 30 34 28 35 29 36
REMARK H PARENT 12 6 1 10 15 20 15 21
ROOT
ATOM     1   N2  UNL     1       0.841  -1.865   1.722  1.00  0.00    -0.202 N   
ATOM     2   C8  UNL     1       1.331  -0.689   1.218  1.00  0.00     0.046 A   
ATOM     3   C9  UNL     1       0.229  -0.074   0.669  1.00  0.00     0.127 A   
ATOM     4   N4  UNL     1      -0.859  -0.900   0.800  1.00  0.00    -0.132 NA  
ATOM     5   N5  UNL     1      -0.469  -1.999   1.424  1.00  0.00    -0.075 NA  
ATOM     6   H8  UNL     1       2.370  -0.405   1.318  1.00  0.00     0.083 HD  
ENDROOT
BRANCH   1   7
ATOM     7   C2  UNL     1       1.528  -2.904   2.496  1.00  0.00     0.160 C   
BRANCH   7   8
ATOM     8   C1  UNL     1       2.153  -3.943   1.545  1.00  0.00     0.186 C   
BRANCH   8   9
ATOM     9   O1  UNL     1       3.121  -3.366   0.666  1.00  0.00    -0.394 OA  
ATOM     10  H1  UNL     1       3.469  -4.090   0.113  1.00  0.00     0.210 HD  
ENDBRANCH   8   9
ENDBRANCH   7   8
BRANCH   7  11
ATOM     11  C3  UNL     1       2.431  -2.296   3.552  1.00  0.00     0.032 A   
ATOM     12  C4  UNL     1       3.826  -2.404   3.566  1.00  0.00     0.012 A   
ATOM     13  C7  UNL     1       1.852  -1.567   4.592  1.00  0.00     0.218 A   
ATOM     14  C5  UNL     1       4.560  -1.796   4.583  1.00  0.00     0.021 A   
ATOM     15  N1  UNL     1       2.537  -0.957   5.579  1.00  0.00    -0.228 NA  
ATOM     16  C6  UNL     1       3.878  -1.092   5.559  1.00  0.00     0.114 A   
ATOM     17  F1  UNL     1       0.517  -1.433   4.617  1.00  0.00    -0.185 F   
ENDBRANCH   7  11
ENDBRANCH   1   7
BRANCH   3  18
ATOM     18  C10 UNL     1       0.071   1.253  -0.001  1.00  0.00     0.117 C   
BRANCH  18  19
ATOM     19  N3  UNL     1      -1.178   1.262  -0.840  1.00  0.00     0.249 N   
ATOM     20  H10 UNL     1      -1.894   0.750  -0.301  1.00  0.00     0.199 HD  
ATOM     21  H11 UNL     1      -1.552   2.204  -0.982  1.00  0.00     0.199 HD  
BRANCH  19  22
ATOM     22  C11 UNL     1      -1.061   0.577  -2.156  1.00  0.00     0.164 C   
BRANCH  22  23
ATOM     23  C12 UNL     1      -2.385   0.576  -2.866  1.00  0.00    -0.002 A   
ATOM     24  C13 UNL     1      -2.696   1.586  -3.808  1.00  0.00     0.012 A   
ATOM     25  C17 UNL     1      -3.347  -0.401  -2.553  1.00  0.00     0.045 A   
ATOM     26  C14 UNL     1      -3.945   1.619  -4.438  1.00  0.00     0.037 A   
ATOM     27  C16 UNL     1      -4.568  -0.338  -3.192  1.00  0.00     0.109 A   
ATOM     28  C15 UNL     1      -4.859   0.643  -4.107  1.00  0.00     0.108 A   
ATOM     29  O2  UNL     1      -5.603  -1.198  -3.005  1.00  0.00    -0.316 OA  
ATOM     30  O3  UNL     1      -6.114   0.524  -4.614  1.00  0.00    -0.316 OA  
ATOM     31  C18 UNL     1      -6.578  -0.658  -3.926  1.00  0.00     0.337 C   
ENDBRANCH  22  23
ENDBRANCH  19  22
ENDBRANCH  18  19
BRANCH  18  32
ATOM     32  C19 UNL     1       0.047   2.406   1.022  1.00  0.00     0.043 C   
ATOM     33  C20 UNL     1       0.121   3.808   0.407  1.00  0.00     0.010 C   
ATOM     34  C23 UNL     1      -1.174   2.462   1.958  1.00  0.00     0.010 C   
ATOM     35  C21 UNL     1      -0.302   4.702   1.562  1.00  0.00     0.001 C   
ATOM     36  C22 UNL     1      -1.464   3.947   2.190  1.00  0.00     0.001 C   
ENDBRANCH  18  32
ENDBRANCH   3  18
TORSDOF 9
