REMARK SMILES OC[C@H](c1cccnc1F)n1cc([C@@H]([NH2+]Cc2ccc3c(c2)OCO3)C2CCCC2)nn1
REMARK SMILES IDX 11 1 12 2 13 3 31 4 32 5 3 7 2 8 1 9 4 11 5 12 9 13 6 14
REMARK SMILES IDX 8 15 7 16 10 17 14 18 15 19 16 22 17 23 18 24 22 25 19 26
REMARK SMILES IDX 21 27 20 28 23 29 25 30 24 31 26 32 27 33 30 34 28 35 29 36
REMARK H PARENT 12 6 1 10 15 20 15 21
ROOT
ATOM     1   N2  UNL     1      -0.903  -2.080   0.742  1.00  0.00    -0.202 N   
ATOM     2   C8  UNL     1      -0.155  -0.936   0.652  1.00  0.00     0.046 A   
ATOM     3   C9  UNL     1      -0.987  -0.044   0.016  1.00  0.00     0.127 A   
ATOM     4   N4  UNL     1      -2.207  -0.633  -0.193  1.00  0.00    -0.132 NA  
ATOM     5   N5  UNL     1      -2.148  -1.873   0.266  1.00  0.00    -0.075 NA  
ATOM     6   H8  UNL     1       0.876  -0.894   0.976  1.00  0.00     0.083 HD  
ENDROOT
BRANCH   1   7
ATOM     7   C2  UNL     1      -0.471  -3.433   1.112  1.00  0.00     0.160 C   
BRANCH   7   8
ATOM     8   C1  UNL     1      -0.485  -3.585   2.644  1.00  0.00     0.186 C   
BRANCH   8   9
ATOM     9   O1  UNL     1       0.437  -2.702   3.284  1.00  0.00    -0.394 OA  
ATOM     10  H1  UNL     1       0.338  -2.831   4.247  1.00  0.00     0.210 HD  
ENDBRANCH   8   9
ENDBRANCH   7   8
BRANCH   7  11
ATOM     11  C3  UNL     1       0.805  -3.804   0.376  1.00  0.00     0.032 A   
ATOM     12  C4  UNL     1       2.011  -4.142   0.998  1.00  0.00     0.012 A   
ATOM     13  C7  UNL     1       0.808  -3.797  -1.021  1.00  0.00     0.218 A   
ATOM     14  C5  UNL     1       3.135  -4.430   0.226  1.00  0.00     0.021 A   
ATOM     15  N1  UNL     1       1.884  -4.046  -1.793  1.00  0.00    -0.228 NA  
ATOM     16  C6  UNL     1       3.025  -4.368  -1.152  1.00  0.00     0.114 A   
ATOM     17  F1  UNL     1      -0.320  -3.470  -1.670  1.00  0.00    -0.185 F   
ENDBRANCH   7  11
ENDBRANCH   1   7
BRANCH   3  18
ATOM     18  C10 UNL     1      -0.715   1.311  -0.544  1.00  0.00     0.117 C   
BRANCH  18  19
ATOM     19  N3  UNL     1      -1.269   1.399  -1.948  1.00  0.00     0.249 N   
ATOM     20  H10 UNL     1      -1.274   2.365  -2.279  1.00  0.00     0.199 HD  
ATOM     21  H11 UNL     1      -2.249   1.087  -1.890  1.00  0.00     0.199 HD  
BRANCH  19  22
ATOM     22  C11 UNL     1      -0.607   0.531  -2.973  1.00  0.00     0.164 C   
BRANCH  22  23
ATOM     23  C12 UNL     1       0.833   0.894  -3.212  1.00  0.00    -0.002 A   
ATOM     24  C13 UNL     1       1.171   2.111  -3.851  1.00  0.00     0.012 A   
ATOM     25  C17 UNL     1       1.856   0.035  -2.774  1.00  0.00     0.045 A   
ATOM     26  C14 UNL     1       2.509   2.474  -4.041  1.00  0.00     0.037 A   
ATOM     27  C16 UNL     1       3.164   0.424  -2.974  1.00  0.00     0.109 A   
ATOM     28  C15 UNL     1       3.481   1.610  -3.589  1.00  0.00     0.108 A   
ATOM     29  O2  UNL     1       4.265  -0.279  -2.601  1.00  0.00    -0.316 OA  
ATOM     30  O3  UNL     1       4.822   1.801  -3.685  1.00  0.00    -0.316 OA  
ATOM     31  C18 UNL     1       5.318   0.582  -3.091  1.00  0.00     0.337 C   
ENDBRANCH  22  23
ENDBRANCH  19  22
ENDBRANCH  18  19
BRANCH  18  32
ATOM     32  C19 UNL     1      -1.287   2.429   0.349  1.00  0.00     0.043 C   
ATOM     33  C20 UNL     1      -0.807   3.838  -0.015  1.00  0.00     0.010 C   
ATOM     34  C23 UNL     1      -2.808   2.598   0.360  1.00  0.00     0.010 C   
ATOM     35  C21 UNL     1      -1.788   4.781   0.683  1.00  0.00     0.001 C   
ATOM     36  C22 UNL     1      -3.003   3.936   1.062  1.00  0.00     0.001 C   
ENDBRANCH  18  32
ENDBRANCH   3  18
TORSDOF 9
