REMARK SMILES CC(C)C[C@H]([NH2+]Cc1ccc2c(c1)OCO2)c1cn(CCc2ccc(Cl)cc2O)nn1
REMARK SMILES IDX 17 1 18 2 19 3 30 4 31 5 5 7 4 8 2 9 1 10 3 11 6 12 7 15
REMARK SMILES IDX 8 16 9 17 13 18 10 19 12 20 11 21 14 22 16 23 15 24 20 25
REMARK SMILES IDX 21 26 22 27 23 28 28 29 24 30 27 31 25 32 26 33 29 34
REMARK H PARENT 18 6 6 13 6 14 29 35
ROOT
ATOM     1   C14 UNL     1       0.245  -2.058  -1.856  1.00  0.00     0.127 A   
ATOM     2   C15 UNL     1       1.498  -1.844  -2.395  1.00  0.00     0.045 A   
ATOM     3   N2  UNL     1       2.252  -2.856  -1.870  1.00  0.00    -0.212 N   
ATOM     4   N3  UNL     1       1.496  -3.695  -1.140  1.00  0.00    -0.076 NA  
ATOM     5   N4  UNL     1       0.264  -3.215  -1.123  1.00  0.00    -0.132 NA  
ATOM     6   H20 UNL     1       1.934  -1.035  -2.964  1.00  0.00     0.083 HD  
ENDROOT
BRANCH   1   7
ATOM     7   C5  UNL     1      -0.940  -1.156  -1.750  1.00  0.00     0.114 C   
BRANCH   7   8
ATOM     8   C4  UNL     1      -1.239  -0.346  -3.021  1.00  0.00     0.064 C   
BRANCH   8   9
ATOM     9   C2  UNL     1      -1.596  -1.196  -4.260  1.00  0.00    -0.012 C   
ATOM     10  C1  UNL     1      -1.790  -0.283  -5.474  1.00  0.00     0.007 C   
ATOM     11  C3  UNL     1      -2.852  -2.041  -4.044  1.00  0.00     0.007 C   
ENDBRANCH   8   9
ENDBRANCH   7   8
BRANCH   7  12
ATOM     12  N1  UNL     1      -0.661  -0.201  -0.614  1.00  0.00     0.249 N   
ATOM     13  H11 UNL     1      -0.034   0.549  -0.926  1.00  0.00     0.199 HD  
ATOM     14  H12 UNL     1      -0.088  -0.708   0.089  1.00  0.00     0.199 HD  
BRANCH  12  15
ATOM     15  C6  UNL     1      -1.836   0.363   0.091  1.00  0.00     0.164 C   
BRANCH  15  16
ATOM     16  C7  UNL     1      -1.389   1.313   1.167  1.00  0.00    -0.002 A   
ATOM     17  C8  UNL     1      -1.200   0.855   2.492  1.00  0.00     0.012 A   
ATOM     18  C12 UNL     1      -1.081   2.646   0.843  1.00  0.00     0.045 A   
ATOM     19  C9  UNL     1      -0.714   1.713   3.485  1.00  0.00     0.037 A   
ATOM     20  C11 UNL     1      -0.598   3.462   1.844  1.00  0.00     0.109 A   
ATOM     21  C10 UNL     1      -0.418   3.010   3.128  1.00  0.00     0.108 A   
ATOM     22  O1  UNL     1      -0.237   4.763   1.696  1.00  0.00    -0.316 OA  
ATOM     23  O2  UNL     1       0.078   3.969   3.951  1.00  0.00    -0.316 OA  
ATOM     24  C13 UNL     1       0.194   5.083   3.039  1.00  0.00     0.337 C   
ENDBRANCH  15  16
ENDBRANCH  12  15
ENDBRANCH   7  12
ENDBRANCH   1   7
BRANCH   3  25
ATOM     25  C16 UNL     1       3.694  -2.907  -1.750  1.00  0.00     0.139 C   
BRANCH  25  26
ATOM     26  C17 UNL     1       4.162  -2.553  -0.331  1.00  0.00     0.059 C   
BRANCH  26  27
ATOM     27  C18 UNL     1       3.933  -1.103   0.054  1.00  0.00    -0.016 A   
ATOM     28  C19 UNL     1       4.972  -0.187  -0.197  1.00  0.00     0.008 A   
ATOM     29  C23 UNL     1       2.751  -0.613   0.634  1.00  0.00     0.076 A   
ATOM     30  C20 UNL     1       4.840   1.165   0.132  1.00  0.00     0.021 A   
ATOM     31  C22 UNL     1       2.624   0.735   0.976  1.00  0.00     0.054 A   
ATOM     32  C21 UNL     1       3.667   1.619   0.722  1.00  0.00     0.043 A   
ATOM     33  CL1 UNL     1       3.487   3.280   1.125  1.00  0.00    -0.084 Cl  
BRANCH  29  34
ATOM     34  O3  UNL     1       1.638  -1.375   0.876  1.00  0.00    -0.361 OA  
ATOM     35  H28 UNL     1       1.864  -2.325   0.787  1.00  0.00     0.218 HD  
ENDBRANCH  29  34
ENDBRANCH  26  27
ENDBRANCH  25  26
ENDBRANCH   3  25
TORSDOF 10
