REMARK SMILES COc1cccc(Cn2cc([C@@H]([NH2+]Cc3ccc4c(c3)OCO4)C3CCCC3)nn2)c1C
REMARK SMILES IDX 9 1 10 2 11 3 29 4 30 5 8 7 7 8 3 9 4 10 31 11 5 12 6 13
REMARK SMILES IDX 32 14 2 15 1 16 12 17 13 18 14 21 15 22 16 23 20 24 17 25
REMARK SMILES IDX 19 26 18 27 21 28 23 29 22 30 24 31 25 32 28 33 26 34 27 35
REMARK H PARENT 10 6 13 19 13 20
ROOT
ATOM     1   N1  UNL     1       0.485   0.677   1.251  1.00  0.00    -0.208 N   
ATOM     2   C8  UNL     1       0.451   0.914  -0.096  1.00  0.00     0.046 A   
ATOM     3   C9  UNL     1      -0.701   1.645  -0.275  1.00  0.00     0.127 A   
ATOM     4   N3  UNL     1      -1.313   1.830   0.939  1.00  0.00    -0.132 NA  
ATOM     5   N4  UNL     1      -0.572   1.246   1.865  1.00  0.00    -0.076 NA  
ATOM     6   H9  UNL     1       1.206   0.537  -0.772  1.00  0.00     0.083 HD  
ENDROOT
BRANCH   1   7
ATOM     7   C7  UNL     1       1.505  -0.020   2.019  1.00  0.00     0.169 C   
BRANCH   7   8
ATOM     8   C6  UNL     1       1.206  -1.498   2.136  1.00  0.00    -0.023 A   
ATOM     9   C2  UNL     1       1.582  -3.849   1.595  1.00  0.00     0.078 A   
ATOM     10  C3  UNL     1       0.563  -4.211   2.482  1.00  0.00     0.034 A   
ATOM     11  C24 UNL     1       1.900  -2.487   1.396  1.00  0.00    -0.016 A   
ATOM     12  C4  UNL     1      -0.127  -3.238   3.198  1.00  0.00     0.003 A   
ATOM     13  C5  UNL     1       0.195  -1.895   3.032  1.00  0.00     0.006 A   
ATOM     14  C25 UNL     1       2.992  -2.100   0.428  1.00  0.00     0.047 C   
BRANCH   9  15
ATOM     15  O1  UNL     1       2.283  -4.763   0.849  1.00  0.00    -0.349 OA  
ATOM     16  C1  UNL     1       2.406  -6.067   1.412  1.00  0.00     0.203 C   
ENDBRANCH   9  15
ENDBRANCH   7   8
ENDBRANCH   1   7
BRANCH   3  17
ATOM     17  C10 UNL     1      -1.373   2.157  -1.506  1.00  0.00     0.117 C   
BRANCH  17  18
ATOM     18  N2  UNL     1      -2.862   1.895  -1.379  1.00  0.00     0.249 N   
ATOM     19  H11 UNL     1      -3.039   1.770  -0.369  1.00  0.00     0.199 HD  
ATOM     20  H12 UNL     1      -3.406   2.720  -1.643  1.00  0.00     0.199 HD  
BRANCH  18  21
ATOM     21  C11 UNL     1      -3.387   0.707  -2.104  1.00  0.00     0.164 C   
BRANCH  21  22
ATOM     22  C12 UNL     1      -2.782  -0.597  -1.666  1.00  0.00    -0.002 A   
ATOM     23  C13 UNL     1      -3.113  -1.155  -0.407  1.00  0.00     0.012 A   
ATOM     24  C17 UNL     1      -1.864  -1.264  -2.496  1.00  0.00     0.045 A   
ATOM     25  C14 UNL     1      -2.551  -2.365   0.013  1.00  0.00     0.037 A   
ATOM     26  C16 UNL     1      -1.327  -2.453  -2.049  1.00  0.00     0.109 A   
ATOM     27  C15 UNL     1      -1.666  -2.993  -0.834  1.00  0.00     0.108 A   
ATOM     28  O2  UNL     1      -0.433  -3.219  -2.727  1.00  0.00    -0.316 OA  
ATOM     29  O3  UNL     1      -1.054  -4.184  -0.605  1.00  0.00    -0.316 OA  
ATOM     30  C18 UNL     1      -0.230  -4.299  -1.786  1.00  0.00     0.337 C   
ENDBRANCH  21  22
ENDBRANCH  18  21
ENDBRANCH  17  18
BRANCH  17  31
ATOM     31  C19 UNL     1      -1.153   3.667  -1.711  1.00  0.00     0.043 C   
ATOM     32  C20 UNL     1      -1.758   4.213  -3.008  1.00  0.00     0.010 C   
ATOM     33  C23 UNL     1       0.324   4.052  -1.874  1.00  0.00     0.010 C   
ATOM     34  C21 UNL     1      -1.082   5.566  -3.180  1.00  0.00     0.001 C   
ATOM     35  C22 UNL     1       0.311   5.408  -2.578  1.00  0.00     0.001 C   
ENDBRANCH  17  31
ENDBRANCH   3  17
TORSDOF 8
