REMARK SMILES Cc1ccc2c(n1)OCC[C@H]2n1cc([C@@H]([NH2+]Cc2ccc3c(c2)OCO3)C(C)(C)C)nn1
REMARK SMILES IDX 15 1 14 2 12 3 13 4 32 5 31 6 11 8 2 9 3 10 7 11 4 12 6 13
REMARK SMILES IDX 5 14 8 15 9 16 10 17 1 18 16 19 17 22 18 23 19 24 23 25
REMARK SMILES IDX 20 26 22 27 21 28 24 29 26 30 25 31 27 32 28 33 29 34 30 35
REMARK H PARENT 13 7 16 20 16 21
ROOT
ATOM     1   C12 UNL     1      -1.031  -0.108  -1.015  1.00  0.00     0.120 C   
ENDROOT
BRANCH   1   2
ATOM     2   C11 UNL     1       0.337   0.490  -0.846  1.00  0.00     0.127 A   
ATOM     3   N2  UNL     1       2.445   0.978  -0.675  1.00  0.00    -0.204 N   
ATOM     4   C10 UNL     1       1.596  -0.047  -1.004  1.00  0.00     0.046 A   
ATOM     5   N5  UNL     1       1.743   2.063  -0.286  1.00  0.00    -0.075 NA  
ATOM     6   N4  UNL     1       0.457   1.782  -0.397  1.00  0.00    -0.132 NA  
ATOM     7   H11 UNL     1       1.948  -1.021  -1.325  1.00  0.00     0.083 HD  
BRANCH   3   8
ATOM     8   C9  UNL     1       3.909   1.050  -0.727  1.00  0.00     0.136 C   
ATOM     9   C2  UNL     1       5.672  -2.798  -0.361  1.00  0.00     0.040 A   
ATOM     10  C3  UNL     1       5.227  -2.173   0.798  1.00  0.00     0.024 A   
ATOM     11  N1  UNL     1       5.563  -2.225  -1.581  1.00  0.00    -0.229 NA  
ATOM     12  C4  UNL     1       4.652  -0.912   0.693  1.00  0.00     0.012 A   
ATOM     13  C6  UNL     1       5.019  -0.996  -1.667  1.00  0.00     0.172 A   
ATOM     14  C5  UNL     1       4.540  -0.303  -0.562  1.00  0.00     0.024 A   
ATOM     15  O1  UNL     1       5.009  -0.498  -2.938  1.00  0.00    -0.329 OA  
ATOM     16  C7  UNL     1       4.278   0.704  -3.163  1.00  0.00     0.172 C   
ATOM     17  C8  UNL     1       4.393   1.700  -2.021  1.00  0.00     0.059 C   
ATOM     18  C1  UNL     1       6.311  -4.154  -0.292  1.00  0.00     0.067 C   
ENDBRANCH   3   8
ENDBRANCH   1   2
BRANCH   1  19
ATOM     19  N3  UNL     1      -1.972   0.583  -0.056  1.00  0.00     0.250 N   
ATOM     20  H13 UNL     1      -2.956   0.491  -0.321  1.00  0.00     0.199 HD  
ATOM     21  H14 UNL     1      -1.756   1.589  -0.118  1.00  0.00     0.199 HD  
BRANCH  19  22
ATOM     22  C13 UNL     1      -1.826   0.199   1.376  1.00  0.00     0.164 C   
BRANCH  22  23
ATOM     23  C14 UNL     1      -2.585   1.155   2.250  1.00  0.00    -0.002 A   
ATOM     24  C15 UNL     1      -1.984   2.373   2.648  1.00  0.00     0.012 A   
ATOM     25  C19 UNL     1      -3.912   0.885   2.618  1.00  0.00     0.045 A   
ATOM     26  C16 UNL     1      -2.692   3.309   3.407  1.00  0.00     0.037 A   
ATOM     27  C18 UNL     1      -4.582   1.830   3.367  1.00  0.00     0.109 A   
ATOM     28  C17 UNL     1      -3.991   3.008   3.749  1.00  0.00     0.108 A   
ATOM     29  O2  UNL     1      -5.866   1.729   3.803  1.00  0.00    -0.316 OA  
ATOM     30  O3  UNL     1      -4.828   3.798   4.470  1.00  0.00    -0.316 OA  
ATOM     31  C20 UNL     1      -6.017   2.981   4.509  1.00  0.00     0.337 C   
ENDBRANCH  22  23
ENDBRANCH  19  22
ENDBRANCH   1  19
BRANCH   1  32
ATOM     32  C21 UNL     1      -1.591  -0.026  -2.479  1.00  0.00     0.010 C   
ATOM     33  C22 UNL     1      -0.622  -0.714  -3.469  1.00  0.00     0.017 C   
ATOM     34  C23 UNL     1      -1.810   1.427  -2.948  1.00  0.00     0.017 C   
ATOM     35  C24 UNL     1      -2.939  -0.778  -2.577  1.00  0.00     0.017 C   
ENDBRANCH   1  32
TORSDOF 6
