REMARK SMILES Cc1ccc2c(n1)OCC[C@@H]2n1cc([C@@H]([NH2+]Cc2ccc3c(c2)OCO3)C(C)(C)C)nn1
REMARK SMILES IDX 15 1 14 2 12 3 13 4 32 5 31 6 11 8 2 9 3 10 7 11 4 12 6 13
REMARK SMILES IDX 5 14 8 15 9 16 10 17 1 18 16 19 17 22 18 23 19 24 23 25
REMARK SMILES IDX 20 26 22 27 21 28 24 29 26 30 25 31 27 32 28 33 29 34 30 35
REMARK H PARENT 13 7 16 20 16 21
ROOT
ATOM     1   C12 UNL     1      -0.174  -1.276  -2.413  1.00  0.00     0.120 C   
ENDROOT
BRANCH   1   2
ATOM     2   C11 UNL     1      -0.841  -1.279  -1.071  1.00  0.00     0.127 A   
ATOM     3   N2  UNL     1      -1.542  -0.988   0.962  1.00  0.00    -0.204 N   
ATOM     4   C10 UNL     1      -0.748  -0.418   0.001  1.00  0.00     0.046 A   
ATOM     5   N5  UNL     1      -2.062  -2.150   0.513  1.00  0.00    -0.075 NA  
ATOM     6   N4  UNL     1      -1.641  -2.337  -0.727  1.00  0.00    -0.132 NA  
ATOM     7   H11 UNL     1      -0.210   0.507   0.159  1.00  0.00     0.083 HD  
BRANCH   3   8
ATOM     8   C9  UNL     1      -1.826  -0.560   2.337  1.00  0.00     0.136 C   
ATOM     9   C2  UNL     1      -1.419   3.641   2.850  1.00  0.00     0.040 A   
ATOM     10  C3  UNL     1      -2.518   3.173   2.144  1.00  0.00     0.024 A   
ATOM     11  N1  UNL     1      -0.471   2.813   3.350  1.00  0.00    -0.229 NA  
ATOM     12  C4  UNL     1      -2.667   1.801   1.970  1.00  0.00     0.012 A   
ATOM     13  C6  UNL     1      -0.630   1.487   3.180  1.00  0.00     0.172 A   
ATOM     14  C5  UNL     1      -1.708   0.929   2.499  1.00  0.00     0.024 A   
ATOM     15  O1  UNL     1       0.352   0.745   3.770  1.00  0.00    -0.329 OA  
ATOM     16  C7  UNL     1       0.431  -0.618   3.367  1.00  0.00     0.172 C   
ATOM     17  C8  UNL     1      -0.932  -1.286   3.342  1.00  0.00     0.059 C   
ATOM     18  C1  UNL     1      -1.221   5.114   3.060  1.00  0.00     0.067 C   
ENDBRANCH   3   8
ENDBRANCH   1   2
BRANCH   1  19
ATOM     19  N3  UNL     1       0.156  -2.715  -2.777  1.00  0.00     0.250 N   
ATOM     20  H13 UNL     1      -0.115  -2.930  -3.739  1.00  0.00     0.199 HD  
ATOM     21  H14 UNL     1      -0.463  -3.300  -2.190  1.00  0.00     0.199 HD  
BRANCH  19  22
ATOM     22  C13 UNL     1       1.562  -3.153  -2.557  1.00  0.00     0.164 C   
BRANCH  22  23
ATOM     23  C14 UNL     1       2.022  -3.047  -1.131  1.00  0.00    -0.002 A   
ATOM     24  C15 UNL     1       1.509  -3.918  -0.140  1.00  0.00     0.012 A   
ATOM     25  C19 UNL     1       2.951  -2.057  -0.764  1.00  0.00     0.045 A   
ATOM     26  C16 UNL     1       1.908  -3.803   1.196  1.00  0.00     0.037 A   
ATOM     27  C18 UNL     1       3.321  -1.970   0.561  1.00  0.00     0.109 A   
ATOM     28  C17 UNL     1       2.815  -2.819   1.512  1.00  0.00     0.108 A   
ATOM     29  O2  UNL     1       4.188  -1.063   1.081  1.00  0.00    -0.316 OA  
ATOM     30  O3  UNL     1       3.297  -2.551   2.754  1.00  0.00    -0.316 OA  
ATOM     31  C20 UNL     1       4.189  -1.450   2.474  1.00  0.00     0.337 C   
ENDBRANCH  22  23
ENDBRANCH  19  22
ENDBRANCH   1  19
BRANCH   1  32
ATOM     32  C21 UNL     1      -1.016  -0.601  -3.550  1.00  0.00     0.010 C   
ATOM     33  C22 UNL     1      -1.348   0.859  -3.164  1.00  0.00     0.017 C   
ATOM     34  C23 UNL     1      -0.193  -0.546  -4.860  1.00  0.00     0.017 C   
ATOM     35  C24 UNL     1      -2.341  -1.334  -3.837  1.00  0.00     0.017 C   
ENDBRANCH   1  32
TORSDOF 6
