REMARK SMILES COc1cc(CCn2cc([C@@H]([NH2+]Cc3ccc4c(c3)OCO4)C(C)C)nn2)ccc1F
REMARK SMILES IDX 8 1 9 2 10 3 26 4 27 5 7 7 6 8 5 9 3 10 4 11 30 12 29 13
REMARK SMILES IDX 28 14 31 15 2 16 1 17 11 18 12 19 13 22 14 23 15 24 19 25
REMARK SMILES IDX 16 26 18 27 17 28 20 29 22 30 21 31 23 32 24 33 25 34
REMARK H PARENT 9 6 12 20 12 21
ROOT
ATOM     1   N1  UNL     1       1.036   1.573  -2.745  1.00  0.00    -0.212 N   
ATOM     2   C7  UNL     1       0.205   0.486  -2.717  1.00  0.00     0.045 A   
ATOM     3   C8  UNL     1      -0.682   0.776  -1.702  1.00  0.00     0.127 A   
ATOM     4   N3  UNL     1      -0.448   2.049  -1.258  1.00  0.00    -0.132 NA  
ATOM     5   N4  UNL     1       0.610   2.523  -1.897  1.00  0.00    -0.076 NA  
ATOM     6   H9  UNL     1       0.387  -0.399  -3.311  1.00  0.00     0.083 HD  
ENDROOT
BRANCH   1   7
ATOM     7   C6  UNL     1       2.353   1.658  -3.350  1.00  0.00     0.139 C   
BRANCH   7   8
ATOM     8   C5  UNL     1       3.481   1.318  -2.358  1.00  0.00     0.057 C   
BRANCH   8   9
ATOM     9   C4  UNL     1       3.318  -0.060  -1.747  1.00  0.00    -0.044 A   
ATOM     10  C2  UNL     1       2.248  -1.487  -0.099  1.00  0.00     0.110 A   
ATOM     11  C3  UNL     1       2.579  -0.215  -0.560  1.00  0.00     0.040 A   
ATOM     12  C23 UNL     1       2.688  -2.611  -0.800  1.00  0.00     0.153 A   
ATOM     13  C22 UNL     1       3.477  -2.474  -1.938  1.00  0.00     0.042 A   
ATOM     14  C21 UNL     1       3.784  -1.200  -2.419  1.00  0.00     0.007 A   
ATOM     15  F1  UNL     1       2.310  -3.838  -0.416  1.00  0.00    -0.204 F   
BRANCH  10  16
ATOM     16  O1  UNL     1       1.367  -1.573   0.950  1.00  0.00    -0.346 OA  
ATOM     17  C1  UNL     1       1.984  -2.203   2.081  1.00  0.00     0.203 C   
ENDBRANCH  10  16
ENDBRANCH   8   9
ENDBRANCH   7   8
ENDBRANCH   1   7
BRANCH   3  18
ATOM     18  C9  UNL     1      -1.695  -0.102  -1.039  1.00  0.00     0.117 C   
BRANCH  18  19
ATOM     19  N2  UNL     1      -1.328  -0.369   0.403  1.00  0.00     0.249 N   
ATOM     20  H11 UNL     1      -0.341  -0.678   0.427  1.00  0.00     0.199 HD  
ATOM     21  H12 UNL     1      -1.851  -1.177   0.751  1.00  0.00     0.199 HD  
BRANCH  19  22
ATOM     22  C10 UNL     1      -1.444   0.751   1.383  1.00  0.00     0.164 C   
BRANCH  22  23
ATOM     23  C11 UNL     1      -1.026   0.303   2.760  1.00  0.00    -0.002 A   
ATOM     24  C12 UNL     1      -1.858  -0.553   3.522  1.00  0.00     0.012 A   
ATOM     25  C16 UNL     1       0.210   0.715   3.286  1.00  0.00     0.045 A   
ATOM     26  C13 UNL     1      -1.454  -1.011   4.780  1.00  0.00     0.037 A   
ATOM     27  C15 UNL     1       0.571   0.257   4.536  1.00  0.00     0.109 A   
ATOM     28  C14 UNL     1      -0.232  -0.590   5.257  1.00  0.00     0.108 A   
ATOM     29  O2  UNL     1       1.727   0.551   5.185  1.00  0.00    -0.316 OA  
ATOM     30  O3  UNL     1       0.321  -0.942   6.448  1.00  0.00    -0.316 OA  
ATOM     31  C17 UNL     1       1.526  -0.149   6.434  1.00  0.00     0.337 C   
ENDBRANCH  22  23
ENDBRANCH  19  22
ENDBRANCH  18  19
BRANCH  18  32
ATOM     32  C18 UNL     1      -3.155   0.395  -1.187  1.00  0.00     0.037 C   
ATOM     33  C19 UNL     1      -4.162  -0.545  -0.510  1.00  0.00     0.014 C   
ATOM     34  C20 UNL     1      -3.544   0.538  -2.667  1.00  0.00     0.014 C   
ENDBRANCH  18  32
ENDBRANCH   3  18
TORSDOF 9
