REMARK SMILES c1cc2c(cc1C[NH2+][C@H](c1cn(Cc3cnoc3C3CC3)nn1)C1CCCC1)OCO2
REMARK SMILES IDX 10 1 11 2 12 3 22 4 23 5 9 7 8 8 7 11 6 12 1 13 2 14 3 15
REMARK SMILES IDX 5 16 4 17 31 18 29 19 30 20 24 21 25 22 28 23 26 24 27 25
REMARK SMILES IDX 13 26 14 27 15 28 18 29 16 30 17 31 19 32 20 33 21 34
REMARK H PARENT 11 6 8 9 8 10
ROOT
ATOM     1   C9  UNL     1       0.685   1.363   1.312  1.00  0.00     0.127 A   
ATOM     2   C10 UNL     1      -0.126   0.256   1.188  1.00  0.00     0.046 A   
ATOM     3   N2  UNL     1      -1.358   0.706   1.575  1.00  0.00    -0.208 N   
ATOM     4   N4  UNL     1      -1.298   1.994   1.965  1.00  0.00    -0.076 NA  
ATOM     5   N5  UNL     1      -0.050   2.407   1.810  1.00  0.00    -0.132 NA  
ATOM     6   H9  UNL     1       0.036  -0.745   0.812  1.00  0.00     0.083 HD  
ENDROOT
BRANCH   1   7
ATOM     7   C8  UNL     1       2.103   1.584   0.900  1.00  0.00     0.117 C   
BRANCH   7   8
ATOM     8   N1  UNL     1       2.252   2.908   0.185  1.00  0.00     0.249 N   
ATOM     9   H6  UNL     1       3.235   3.097  -0.019  1.00  0.00     0.199 HD  
ATOM     10  H7  UNL     1       1.925   3.635   0.835  1.00  0.00     0.199 HD  
BRANCH   8  11
ATOM     11  C7  UNL     1       1.455   3.088  -1.073  1.00  0.00     0.164 C   
BRANCH  11  12
ATOM     12  C6  UNL     1       1.686   2.011  -2.096  1.00  0.00    -0.002 A   
ATOM     13  C1  UNL     1       2.930   1.899  -2.761  1.00  0.00     0.012 A   
ATOM     14  C2  UNL     1       3.162   0.867  -3.678  1.00  0.00     0.037 A   
ATOM     15  C3  UNL     1       2.144  -0.032  -3.910  1.00  0.00     0.108 A   
ATOM     16  C5  UNL     1       0.667   1.081  -2.372  1.00  0.00     0.045 A   
ATOM     17  C4  UNL     1       0.931   0.072  -3.274  1.00  0.00     0.109 A   
ATOM     18  O3  UNL     1       2.195  -1.093  -4.756  1.00  0.00    -0.316 OA  
ATOM     19  O2  UNL     1       0.071  -0.916  -3.631  1.00  0.00    -0.316 OA  
ATOM     20  C23 UNL     1       0.856  -1.617  -4.623  1.00  0.00     0.337 C   
ENDBRANCH  11  12
ENDBRANCH   8  11
ENDBRANCH   7   8
BRANCH   7  21
ATOM     21  C18 UNL     1       3.068   1.489   2.099  1.00  0.00     0.043 C   
ATOM     22  C19 UNL     1       4.553   1.443   1.723  1.00  0.00     0.010 C   
ATOM     23  C22 UNL     1       3.030   2.633   3.114  1.00  0.00     0.010 C   
ATOM     24  C20 UNL     1       5.292   1.739   3.028  1.00  0.00     0.001 C   
ATOM     25  C21 UNL     1       4.272   2.388   3.963  1.00  0.00     0.001 C   
ENDBRANCH   7  21
ENDBRANCH   1   7
BRANCH   3  26
ATOM     26  C11 UNL     1      -2.639   0.028   1.450  1.00  0.00     0.173 C   
BRANCH  26  27
ATOM     27  C12 UNL     1      -3.175   0.254   0.086  1.00  0.00     0.021 A   
ATOM     28  C13 UNL     1      -3.849   1.405  -0.386  1.00  0.00     0.149 A   
ATOM     29  C14 UNL     1      -3.114  -0.556  -1.028  1.00  0.00     0.094 A   
ATOM     30  N3  UNL     1      -4.141   1.324  -1.683  1.00  0.00    -0.137 NA  
ATOM     31  O1  UNL     1      -3.683   0.082  -2.086  1.00  0.00    -0.218 OA  
BRANCH  29  32
ATOM     32  C15 UNL     1      -2.471  -1.964  -1.122  1.00  0.00     0.046 C   
ATOM     33  C16 UNL     1      -3.217  -3.043  -1.861  1.00  0.00     0.011 C   
ATOM     34  C17 UNL     1      -3.088  -3.111  -0.367  1.00  0.00     0.011 C   
ENDBRANCH  29  32
ENDBRANCH  26  27
ENDBRANCH   3  26
TORSDOF 8
