REMARK SMILES CC(C)Cc1n[nH]cc1Cn1cc([C@@H]([NH2+]Cc2ccc3c(c2)OCO3)C2CCCCC2)nn1
REMARK SMILES IDX 11 1 12 2 13 3 32 4 33 5 10 7 9 8 5 9 6 10 7 11 8 12 4 14
REMARK SMILES IDX 2 15 1 16 3 17 14 18 15 19 16 22 17 23 18 24 22 25 19 26
REMARK SMILES IDX 21 27 20 28 23 29 25 30 24 31 26 32 27 33 31 34 28 35 30 36
REMARK SMILES IDX 29 37
REMARK H PARENT 12 6 7 13 15 20 15 21
ROOT
ATOM     1   N3  UNL     1      -1.979   1.064  -0.477  1.00  0.00    -0.208 N   
ATOM     2   C9  UNL     1      -1.199   1.386  -1.556  1.00  0.00     0.046 A   
ATOM     3   C10 UNL     1       0.085   1.378  -1.055  1.00  0.00     0.127 A   
ATOM     4   N5  UNL     1       0.039   1.093   0.286  1.00  0.00    -0.132 NA  
ATOM     5   N6  UNL     1      -1.226   0.936   0.634  1.00  0.00    -0.076 NA  
ATOM     6   H14 UNL     1      -1.615   1.556  -2.539  1.00  0.00     0.083 HD  
ENDROOT
BRANCH   1   7
ATOM     7   C8  UNL     1      -3.424   0.911  -0.424  1.00  0.00     0.172 C   
BRANCH   7   8
ATOM     8   C7  UNL     1      -3.804  -0.515  -0.616  1.00  0.00     0.010 A   
ATOM     9   C5  UNL     1      -4.036  -1.500   0.388  1.00  0.00     0.065 A   
ATOM     10  N1  UNL     1      -4.340  -2.687  -0.150  1.00  0.00    -0.189 NA  
ATOM     11  N2  UNL     1      -4.342  -2.471  -1.471  1.00  0.00    -0.245 N   
ATOM     12  C6  UNL     1      -4.021  -1.187  -1.805  1.00  0.00     0.099 A   
ATOM     13  H10 UNL     1      -4.570  -3.248  -2.084  1.00  0.00     0.175 HD  
BRANCH   9  14
ATOM     14  C4  UNL     1      -3.964  -1.363   1.878  1.00  0.00     0.061 C   
BRANCH  14  15
ATOM     15  C2  UNL     1      -5.215  -0.712   2.498  1.00  0.00    -0.011 C   
ATOM     16  C1  UNL     1      -6.455  -1.602   2.367  1.00  0.00     0.008 C   
ATOM     17  C3  UNL     1      -4.960  -0.394   3.974  1.00  0.00     0.008 C   
ENDBRANCH  14  15
ENDBRANCH   9  14
ENDBRANCH   7   8
ENDBRANCH   1   7
BRANCH   3  18
ATOM     18  C11 UNL     1       1.410   1.618  -1.713  1.00  0.00     0.117 C   
BRANCH  18  19
ATOM     19  N4  UNL     1       2.482   1.806  -0.673  1.00  0.00     0.249 N   
ATOM     20  H16 UNL     1       3.417   1.568  -1.019  1.00  0.00     0.199 HD  
ATOM     21  H17 UNL     1       2.282   1.124   0.075  1.00  0.00     0.199 HD  
BRANCH  19  22
ATOM     22  C12 UNL     1       2.519   3.151  -0.036  1.00  0.00     0.164 C   
BRANCH  22  23
ATOM     23  C13 UNL     1       3.526   3.181   1.079  1.00  0.00    -0.002 A   
ATOM     24  C14 UNL     1       4.837   3.662   0.853  1.00  0.00     0.012 A   
ATOM     25  C18 UNL     1       3.179   2.682   2.349  1.00  0.00     0.045 A   
ATOM     26  C15 UNL     1       5.788   3.665   1.880  1.00  0.00     0.037 A   
ATOM     27  C17 UNL     1       4.141   2.698   3.338  1.00  0.00     0.109 A   
ATOM     28  C16 UNL     1       5.407   3.178   3.111  1.00  0.00     0.108 A   
ATOM     29  O1  UNL     1       3.970   2.265   4.613  1.00  0.00    -0.316 OA  
ATOM     30  O2  UNL     1       6.193   3.110   4.216  1.00  0.00    -0.316 OA  
ATOM     31  C19 UNL     1       5.279   2.522   5.169  1.00  0.00     0.337 C   
ENDBRANCH  22  23
ENDBRANCH  19  22
ENDBRANCH  18  19
BRANCH  18  32
ATOM     32  C20 UNL     1       1.795   0.473  -2.688  1.00  0.00     0.043 C   
ATOM     33  C21 UNL     1       2.106  -0.866  -1.989  1.00  0.00     0.010 C   
ATOM     34  C25 UNL     1       2.965   0.874  -3.609  1.00  0.00     0.010 C   
ATOM     35  C22 UNL     1       2.429  -1.964  -3.002  1.00  0.00     0.001 C   
ATOM     36  C24 UNL     1       3.280  -0.224  -4.623  1.00  0.00     0.001 C   
ATOM     37  C23 UNL     1       3.562  -1.558  -3.938  1.00  0.00     0.000 C   
ENDBRANCH  18  32
ENDBRANCH   3  18
TORSDOF 9
