REMARK SMILES Cc1ncccc1CCn1cc([C@@H]([NH2+]Cc2ccc3c(c2)OCO3)C(C)C)nn1
REMARK SMILES IDX 10 1 11 2 12 3 28 4 29 5 9 7 8 8 7 9 2 10 3 11 4 12 6 13
REMARK SMILES IDX 5 14 1 15 13 16 14 17 15 20 16 21 17 22 21 23 18 24 20 25
REMARK SMILES IDX 19 26 22 27 24 28 23 29 25 30 26 31 27 32
REMARK H PARENT 11 6 14 18 14 19
ROOT
ATOM     1   N2  UNL     1      -2.336  -0.457  -2.413  1.00  0.00    -0.212 N   
ATOM     2   C9  UNL     1      -1.089  -0.384  -2.970  1.00  0.00     0.045 A   
ATOM     3   C10 UNL     1      -0.263  -0.893  -1.994  1.00  0.00     0.127 A   
ATOM     4   N4  UNL     1      -1.026  -1.317  -0.935  1.00  0.00    -0.132 NA  
ATOM     5   N5  UNL     1      -2.295  -1.060  -1.213  1.00  0.00    -0.076 NA  
ATOM     6   H11 UNL     1      -0.907   0.084  -3.927  1.00  0.00     0.083 HD  
ENDROOT
BRANCH   1   7
ATOM     7   C8  UNL     1      -3.551   0.181  -2.882  1.00  0.00     0.139 C   
BRANCH   7   8
ATOM     8   C7  UNL     1      -3.842   1.511  -2.166  1.00  0.00     0.059 C   
BRANCH   8   9
ATOM     9   C6  UNL     1      -2.676   2.475  -2.221  1.00  0.00    -0.025 A   
ATOM     10  C2  UNL     1      -1.861   2.752  -1.114  1.00  0.00     0.040 A   
ATOM     11  N1  UNL     1      -0.714   3.474  -1.215  1.00  0.00    -0.261 NA  
ATOM     12  C3  UNL     1      -0.431   4.042  -2.408  1.00  0.00     0.111 A   
ATOM     13  C5  UNL     1      -2.334   3.070  -3.445  1.00  0.00     0.007 A   
ATOM     14  C4  UNL     1      -1.206   3.876  -3.538  1.00  0.00     0.020 A   
ATOM     15  C1  UNL     1      -2.202   2.285   0.273  1.00  0.00     0.067 C   
ENDBRANCH   8   9
ENDBRANCH   7   8
ENDBRANCH   1   7
BRANCH   3  16
ATOM     16  C11 UNL     1       1.228  -0.923  -1.899  1.00  0.00     0.117 C   
BRANCH  16  17
ATOM     17  N3  UNL     1       1.670  -0.587  -0.501  1.00  0.00     0.249 N   
ATOM     18  H13 UNL     1       2.647  -0.842  -0.334  1.00  0.00     0.199 HD  
ATOM     19  H14 UNL     1       1.103  -1.161   0.139  1.00  0.00     0.199 HD  
BRANCH  17  20
ATOM     20  C12 UNL     1       1.468   0.838  -0.101  1.00  0.00     0.164 C   
BRANCH  20  21
ATOM     21  C13 UNL     1       1.927   1.048   1.315  1.00  0.00    -0.002 A   
ATOM     22  C14 UNL     1       3.236   1.514   1.585  1.00  0.00     0.012 A   
ATOM     23  C18 UNL     1       1.069   0.731   2.383  1.00  0.00     0.045 A   
ATOM     24  C15 UNL     1       3.683   1.671   2.901  1.00  0.00     0.037 A   
ATOM     25  C17 UNL     1       1.542   0.898   3.667  1.00  0.00     0.109 A   
ATOM     26  C16 UNL     1       2.812   1.355   3.920  1.00  0.00     0.108 A   
ATOM     27  O1  UNL     1       0.847   0.640   4.806  1.00  0.00    -0.316 OA  
ATOM     28  O2  UNL     1       3.077   1.443   5.249  1.00  0.00    -0.316 OA  
ATOM     29  C19 UNL     1       1.818   1.013   5.810  1.00  0.00     0.337 C   
ENDBRANCH  20  21
ENDBRANCH  17  20
ENDBRANCH  16  17
BRANCH  16  30
ATOM     30  C20 UNL     1       1.825  -2.282  -2.349  1.00  0.00     0.037 C   
ATOM     31  C21 UNL     1       1.527  -3.446  -1.397  1.00  0.00     0.014 C   
ATOM     32  C22 UNL     1       3.338  -2.183  -2.579  1.00  0.00     0.014 C   
ENDBRANCH  16  30
ENDBRANCH   3  16
TORSDOF 8
