REMARK SMILES CC(C)[C@H]([NH2+]Cc1ccc2c(c1)OCO2)c1cn(Cc2cccc(F)c2O)nn1
REMARK SMILES IDX 16 1 17 2 18 3 28 4 29 5 4 7 2 8 1 9 3 10 5 11 6 14 7 15
REMARK SMILES IDX 8 16 12 17 9 18 11 19 10 20 13 21 15 22 14 23 19 24 20 25
REMARK SMILES IDX 21 26 26 27 22 28 24 29 23 30 25 31 27 32
REMARK H PARENT 17 6 5 12 5 13 27 33
ROOT
ATOM     1   C13 UNL     1       0.024   1.055   1.031  1.00  0.00     0.127 A   
ATOM     2   C14 UNL     1      -1.149   1.753   1.209  1.00  0.00     0.046 A   
ATOM     3   N2  UNL     1      -1.396   2.307  -0.017  1.00  0.00    -0.208 N   
ATOM     4   N3  UNL     1      -0.432   1.969  -0.898  1.00  0.00    -0.076 NA  
ATOM     5   N4  UNL     1       0.442   1.202  -0.268  1.00  0.00    -0.132 NA  
ATOM     6   H18 UNL     1      -1.815   1.898   2.049  1.00  0.00     0.083 HD  
ENDROOT
BRANCH   1   7
ATOM     7   C4  UNL     1       0.805   0.181   1.957  1.00  0.00     0.117 C   
BRANCH   7   8
ATOM     8   C2  UNL     1       1.892   0.927   2.773  1.00  0.00     0.037 C   
ATOM     9   C1  UNL     1       1.273   1.926   3.758  1.00  0.00     0.014 C   
ATOM     10  C3  UNL     1       2.949   1.632   1.915  1.00  0.00     0.014 C   
ENDBRANCH   7   8
BRANCH   7  11
ATOM     11  N1  UNL     1       1.472  -0.924   1.174  1.00  0.00     0.249 N   
ATOM     12  H9  UNL     1       2.252  -1.337   1.693  1.00  0.00     0.199 HD  
ATOM     13  H10 UNL     1       1.877  -0.486   0.332  1.00  0.00     0.199 HD  
BRANCH  11  14
ATOM     14  C5  UNL     1       0.564  -2.007   0.705  1.00  0.00     0.164 C   
BRANCH  14  15
ATOM     15  C6  UNL     1       1.327  -3.015  -0.107  1.00  0.00    -0.002 A   
ATOM     16  C7  UNL     1       1.888  -4.158   0.510  1.00  0.00     0.012 A   
ATOM     17  C11 UNL     1       1.533  -2.796  -1.480  1.00  0.00     0.045 A   
ATOM     18  C8  UNL     1       2.638  -5.077  -0.231  1.00  0.00     0.037 A   
ATOM     19  C10 UNL     1       2.276  -3.722  -2.181  1.00  0.00     0.109 A   
ATOM     20  C9  UNL     1       2.813  -4.830  -1.575  1.00  0.00     0.108 A   
ATOM     21  O1  UNL     1       2.568  -3.662  -3.506  1.00  0.00    -0.316 OA  
ATOM     22  O2  UNL     1       3.512  -5.608  -2.442  1.00  0.00    -0.316 OA  
ATOM     23  C12 UNL     1       3.337  -4.874  -3.673  1.00  0.00     0.337 C   
ENDBRANCH  14  15
ENDBRANCH  11  14
ENDBRANCH   7  11
ENDBRANCH   1   7
BRANCH   3  24
ATOM     24  C15 UNL     1      -2.494   3.171  -0.410  1.00  0.00     0.172 C   
BRANCH  24  25
ATOM     25  C16 UNL     1      -3.638   2.374  -0.977  1.00  0.00     0.005 A   
ATOM     26  C17 UNL     1      -3.754   2.187  -2.365  1.00  0.00     0.008 A   
ATOM     27  C21 UNL     1      -4.598   1.787  -0.150  1.00  0.00     0.112 A   
ATOM     28  C18 UNL     1      -4.813   1.446  -2.904  1.00  0.00     0.004 A   
ATOM     29  C20 UNL     1      -5.650   1.048  -0.692  1.00  0.00     0.153 A   
ATOM     30  C19 UNL     1      -5.766   0.874  -2.064  1.00  0.00     0.042 A   
ATOM     31  F1  UNL     1      -6.553   0.497   0.131  1.00  0.00    -0.204 F   
BRANCH  27  32
ATOM     32  O3  UNL     1      -4.505   1.936   1.208  1.00  0.00    -0.358 OA  
ATOM     33  H24 UNL     1      -5.325   1.554   1.583  1.00  0.00     0.218 HD  
ENDBRANCH  27  32
ENDBRANCH  24  25
ENDBRANCH   3  24
TORSDOF 8
