REMARK SMILES CC(C)(C)[C@H]([NH2+]Cc1ccc2c(c1)OCO2)c1cn([C@@H](CO)c2ccc(Cl)nc2)nn1
REMARK SMILES IDX 17 1 18 2 19 3 30 4 31 5 5 7 2 8 1 9 3 10 4 11 6 12 7 15
REMARK SMILES IDX 8 16 9 17 13 18 10 19 12 20 11 21 14 22 16 23 15 24 20 25
REMARK SMILES IDX 21 26 22 27 23 29 24 30 29 31 25 32 28 33 26 34 27 35
REMARK H PARENT 18 6 6 13 6 14 22 28
ROOT
ATOM     1   C14 UNL     1       0.791  -0.406  -0.199  1.00  0.00     0.127 A   
ATOM     2   C15 UNL     1      -0.345   0.255   0.207  1.00  0.00     0.046 A   
ATOM     3   N2  UNL     1      -0.578   1.163  -0.791  1.00  0.00    -0.202 N   
ATOM     4   N4  UNL     1       0.350   1.051  -1.764  1.00  0.00    -0.075 NA  
ATOM     5   N5  UNL     1       1.190   0.090  -1.415  1.00  0.00    -0.132 NA  
ATOM     6   H20 UNL     1      -0.995   0.165   1.066  1.00  0.00     0.083 HD  
ENDROOT
BRANCH   1   7
ATOM     7   C5  UNL     1       1.531  -1.560   0.403  1.00  0.00     0.120 C   
BRANCH   7   8
ATOM     8   C2  UNL     1       2.783  -1.147   1.253  1.00  0.00     0.010 C   
ATOM     9   C1  UNL     1       3.882  -0.467   0.412  1.00  0.00     0.017 C   
ATOM     10  C3  UNL     1       2.362  -0.173   2.377  1.00  0.00     0.017 C   
ATOM     11  C4  UNL     1       3.392  -2.392   1.940  1.00  0.00     0.017 C   
ENDBRANCH   7   8
BRANCH   7  12
ATOM     12  N1  UNL     1       1.931  -2.504  -0.717  1.00  0.00     0.250 N   
ATOM     13  H11 UNL     1       1.980  -1.921  -1.569  1.00  0.00     0.199 HD  
ATOM     14  H12 UNL     1       2.877  -2.866  -0.583  1.00  0.00     0.199 HD  
BRANCH  12  15
ATOM     15  C6  UNL     1       1.008  -3.644  -0.983  1.00  0.00     0.164 C   
BRANCH  15  16
ATOM     16  C7  UNL     1      -0.364  -3.230  -1.437  1.00  0.00    -0.002 A   
ATOM     17  C8  UNL     1      -1.469  -3.320  -0.556  1.00  0.00     0.012 A   
ATOM     18  C12 UNL     1      -0.556  -2.713  -2.731  1.00  0.00     0.045 A   
ATOM     19  C9  UNL     1      -2.740  -2.886  -0.947  1.00  0.00     0.037 A   
ATOM     20  C11 UNL     1      -1.823  -2.300  -3.086  1.00  0.00     0.109 A   
ATOM     21  C10 UNL     1      -2.884  -2.378  -2.218  1.00  0.00     0.108 A   
ATOM     22  O1  UNL     1      -2.175  -1.775  -4.289  1.00  0.00    -0.316 OA  
ATOM     23  O2  UNL     1      -4.033  -1.892  -2.758  1.00  0.00    -0.316 OA  
ATOM     24  C13 UNL     1      -3.596  -1.597  -4.104  1.00  0.00     0.337 C   
ENDBRANCH  15  16
ENDBRANCH  12  15
ENDBRANCH   7  12
ENDBRANCH   1   7
BRANCH   3  25
ATOM     25  C16 UNL     1      -1.637   2.170  -0.895  1.00  0.00     0.157 C   
BRANCH  25  26
ATOM     26  C17 UNL     1      -2.952   1.518  -1.366  1.00  0.00     0.186 C   
BRANCH  26  27
ATOM     27  O3  UNL     1      -3.430   0.523  -0.460  1.00  0.00    -0.394 OA  
ATOM     28  H24 UNL     1      -4.164   0.059  -0.907  1.00  0.00     0.210 HD  
ENDBRANCH  26  27
ENDBRANCH  25  26
BRANCH  25  29
ATOM     29  C18 UNL     1      -1.678   3.029   0.357  1.00  0.00    -0.005 A   
ATOM     30  C19 UNL     1      -2.738   3.041   1.272  1.00  0.00     0.010 A   
ATOM     31  C22 UNL     1      -0.591   3.860   0.646  1.00  0.00     0.118 A   
ATOM     32  C20 UNL     1      -2.673   3.853   2.404  1.00  0.00     0.041 A   
ATOM     33  N3  UNL     1      -0.496   4.646   1.740  1.00  0.00    -0.244 NA  
ATOM     34  C21 UNL     1      -1.542   4.626   2.587  1.00  0.00     0.129 A   
ATOM     35  CL1 UNL     1      -1.374   5.636   3.960  1.00  0.00    -0.062 Cl  
ENDBRANCH  25  29
ENDBRANCH   3  25
TORSDOF 9
