REMARK SMILES CC(C)(C)[C@H]([NH2+]Cc1ccc2c(c1)OCO2)c1cn([C@H](CO)c2ccc(Cl)nc2)nn1
REMARK SMILES IDX 17 1 18 2 19 3 30 4 31 5 5 7 2 8 1 9 3 10 4 11 6 12 7 15
REMARK SMILES IDX 8 16 9 17 13 18 10 19 12 20 11 21 14 22 16 23 15 24 20 25
REMARK SMILES IDX 21 26 22 27 23 29 24 30 29 31 25 32 28 33 26 34 27 35
REMARK H PARENT 18 6 6 13 6 14 22 28
ROOT
ATOM     1   C14 UNL     1      -1.270  -1.537  -0.347  1.00  0.00     0.127 A   
ATOM     2   C15 UNL     1       0.084  -1.780  -0.326  1.00  0.00     0.046 A   
ATOM     3   N2  UNL     1       0.283  -2.671  -1.347  1.00  0.00    -0.202 N   
ATOM     4   N4  UNL     1      -0.889  -2.974  -1.944  1.00  0.00    -0.075 NA  
ATOM     5   N5  UNL     1      -1.846  -2.289  -1.337  1.00  0.00    -0.132 NA  
ATOM     6   H20 UNL     1       0.903  -1.376   0.255  1.00  0.00     0.083 HD  
ENDROOT
BRANCH   1   7
ATOM     7   C5  UNL     1      -2.085  -0.538   0.414  1.00  0.00     0.120 C   
BRANCH   7   8
ATOM     8   C2  UNL     1      -2.899  -1.149   1.610  1.00  0.00     0.010 C   
ATOM     9   C1  UNL     1      -3.592  -0.027   2.417  1.00  0.00     0.017 C   
ATOM     10  C3  UNL     1      -1.940  -1.877   2.580  1.00  0.00     0.017 C   
ATOM     11  C4  UNL     1      -3.980  -2.151   1.157  1.00  0.00     0.017 C   
ENDBRANCH   7   8
BRANCH   7  12
ATOM     12  N1  UNL     1      -3.011   0.197  -0.538  1.00  0.00     0.250 N   
ATOM     13  H11 UNL     1      -3.592  -0.518  -0.995  1.00  0.00     0.199 HD  
ATOM     14  H12 UNL     1      -3.634   0.822  -0.024  1.00  0.00     0.199 HD  
BRANCH  12  15
ATOM     15  C6  UNL     1      -2.360   0.982  -1.638  1.00  0.00     0.164 C   
BRANCH  15  16
ATOM     16  C7  UNL     1      -1.413   2.040  -1.146  1.00  0.00    -0.002 A   
ATOM     17  C8  UNL     1      -1.894   3.182  -0.462  1.00  0.00     0.012 A   
ATOM     18  C12 UNL     1      -0.029   1.888  -1.347  1.00  0.00     0.045 A   
ATOM     19  C9  UNL     1      -1.010   4.152   0.024  1.00  0.00     0.037 A   
ATOM     20  C11 UNL     1       0.814   2.860  -0.854  1.00  0.00     0.109 A   
ATOM     21  C10 UNL     1       0.338   3.961  -0.188  1.00  0.00     0.108 A   
ATOM     22  O1  UNL     1       2.169   2.856  -0.950  1.00  0.00    -0.316 OA  
ATOM     23  O2  UNL     1       1.333   4.795   0.212  1.00  0.00    -0.316 OA  
ATOM     24  C13 UNL     1       2.490   4.119  -0.325  1.00  0.00     0.337 C   
ENDBRANCH  15  16
ENDBRANCH  12  15
ENDBRANCH   7  12
ENDBRANCH   1   7
BRANCH   3  25
ATOM     25  C16 UNL     1       1.549  -3.082  -1.961  1.00  0.00     0.157 C   
BRANCH  25  26
ATOM     26  C17 UNL     1       2.363  -3.998  -1.027  1.00  0.00     0.186 C   
BRANCH  26  27
ATOM     27  O3  UNL     1       2.699  -3.378   0.214  1.00  0.00    -0.394 OA  
ATOM     28  H24 UNL     1       3.206  -4.031   0.733  1.00  0.00     0.210 HD  
ENDBRANCH  26  27
ENDBRANCH  25  26
BRANCH  25  29
ATOM     29  C18 UNL     1       2.237  -1.852  -2.533  1.00  0.00    -0.005 A   
ATOM     30  C19 UNL     1       3.366  -1.243  -1.972  1.00  0.00     0.010 A   
ATOM     31  C22 UNL     1       1.675  -1.225  -3.649  1.00  0.00     0.118 A   
ATOM     32  C20 UNL     1       3.864  -0.061  -2.520  1.00  0.00     0.041 A   
ATOM     33  N3  UNL     1       2.119  -0.068  -4.184  1.00  0.00    -0.244 NA  
ATOM     34  C21 UNL     1       3.207   0.481  -3.609  1.00  0.00     0.129 A   
ATOM     35  CL1 UNL     1       3.723   1.955  -4.311  1.00  0.00    -0.062 Cl  
ENDBRANCH  25  29
ENDBRANCH   3  25
TORSDOF 9
