REMARK SMILES COc1cccc(Cn2cc([C@@H]([NH2+]Cc3ccc4c(c3)OCO4)C(C)(C)C)nn2)c1OC
REMARK SMILES IDX 9 1 10 2 11 3 28 4 29 5 8 7 7 8 3 9 4 10 30 11 5 12 6 13
REMARK SMILES IDX 2 14 1 15 31 16 32 17 12 18 13 19 14 22 15 23 16 24 20 25
REMARK SMILES IDX 17 26 19 27 18 28 21 29 23 30 22 31 24 32 25 33 26 34 27 35
REMARK H PARENT 10 6 13 20 13 21
ROOT
ATOM     1   N1  UNL     1       1.991  -2.093   2.513  1.00  0.00    -0.208 N   
ATOM     2   C8  UNL     1       1.119  -1.045   2.604  1.00  0.00     0.046 A   
ATOM     3   C9  UNL     1      -0.122  -1.633   2.501  1.00  0.00     0.127 A   
ATOM     4   N3  UNL     1       0.030  -2.993   2.421  1.00  0.00    -0.132 NA  
ATOM     5   N4  UNL     1       1.325  -3.264   2.435  1.00  0.00    -0.076 NA  
ATOM     6   H9  UNL     1       1.452  -0.017   2.653  1.00  0.00     0.083 HD  
ENDROOT
BRANCH   1   7
ATOM     7   C7  UNL     1       3.439  -2.047   2.407  1.00  0.00     0.172 C   
BRANCH   7   8
ATOM     8   C6  UNL     1       3.865  -2.013   0.959  1.00  0.00     0.004 A   
ATOM     9   C2  UNL     1       4.144  -0.820  -1.165  1.00  0.00     0.105 A   
ATOM     10  C3  UNL     1       4.541  -2.017  -1.768  1.00  0.00     0.036 A   
ATOM     11  C23 UNL     1       3.839  -0.819   0.211  1.00  0.00     0.110 A   
ATOM     12  C4  UNL     1       4.604  -3.198  -1.025  1.00  0.00     0.003 A   
ATOM     13  C5  UNL     1       4.257  -3.200   0.324  1.00  0.00     0.008 A   
BRANCH   9  14
ATOM     14  O1  UNL     1       3.982   0.364  -1.835  1.00  0.00    -0.347 OA  
ATOM     15  C1  UNL     1       4.403   0.416  -3.193  1.00  0.00     0.203 C   
ENDBRANCH   9  14
BRANCH  11  16
ATOM     16  O4  UNL     1       3.425   0.309   0.882  1.00  0.00    -0.346 OA  
ATOM     17  C24 UNL     1       4.345   1.398   0.771  1.00  0.00     0.203 C   
ENDBRANCH  11  16
ENDBRANCH   7   8
ENDBRANCH   1   7
BRANCH   3  18
ATOM     18  C10 UNL     1      -1.474  -1.015   2.337  1.00  0.00     0.120 C   
BRANCH  18  19
ATOM     19  N2  UNL     1      -2.231  -1.734   1.234  1.00  0.00     0.250 N   
ATOM     20  H11 UNL     1      -3.180  -1.367   1.152  1.00  0.00     0.199 HD  
ATOM     21  H12 UNL     1      -2.297  -2.719   1.518  1.00  0.00     0.199 HD  
BRANCH  19  22
ATOM     22  C11 UNL     1      -1.601  -1.729  -0.126  1.00  0.00     0.164 C   
BRANCH  22  23
ATOM     23  C12 UNL     1      -1.335  -0.353  -0.670  1.00  0.00    -0.002 A   
ATOM     24  C13 UNL     1      -0.002   0.095  -0.837  1.00  0.00     0.012 A   
ATOM     25  C17 UNL     1      -2.397   0.507  -0.995  1.00  0.00     0.045 A   
ATOM     26  C14 UNL     1       0.274   1.382  -1.308  1.00  0.00     0.037 A   
ATOM     27  C16 UNL     1      -2.090   1.771  -1.457  1.00  0.00     0.109 A   
ATOM     28  C15 UNL     1      -0.793   2.197  -1.608  1.00  0.00     0.108 A   
ATOM     29  O2  UNL     1      -2.994   2.724  -1.805  1.00  0.00    -0.316 OA  
ATOM     30  O3  UNL     1      -0.718   3.471  -2.072  1.00  0.00    -0.316 OA  
ATOM     31  C18 UNL     1      -2.116   3.794  -2.223  1.00  0.00     0.337 C   
ENDBRANCH  22  23
ENDBRANCH  19  22
ENDBRANCH  18  19
BRANCH  18  32
ATOM     32  C19 UNL     1      -2.328  -0.973   3.653  1.00  0.00     0.010 C   
ATOM     33  C20 UNL     1      -3.647  -0.202   3.413  1.00  0.00     0.017 C   
ATOM     34  C21 UNL     1      -2.684  -2.374   4.188  1.00  0.00     0.017 C   
ATOM     35  C22 UNL     1      -1.556  -0.215   4.757  1.00  0.00     0.017 C   
ENDBRANCH  18  32
ENDBRANCH   3  18
TORSDOF 9
