REMARK SMILES CC(C)(C)[C@H]([NH2+]Cc1ccc2c(c1)OCO2)c1cn([C@@H](CO)c2cccc(Cl)n2)nn1
REMARK SMILES IDX 17 1 18 2 19 3 30 4 31 5 5 7 2 8 1 9 3 10 4 11 6 12 7 15
REMARK SMILES IDX 8 16 9 17 13 18 10 19 12 20 11 21 14 22 16 23 15 24 20 25
REMARK SMILES IDX 21 26 22 27 23 29 24 30 29 31 25 32 27 33 26 34 28 35
REMARK H PARENT 18 6 6 13 6 14 22 28
ROOT
ATOM     1   C14 UNL     1       0.189   0.577  -0.825  1.00  0.00     0.127 A   
ATOM     2   C15 UNL     1       0.452   0.750  -2.164  1.00  0.00     0.046 A   
ATOM     3   N2  UNL     1       1.366  -0.226  -2.459  1.00  0.00    -0.201 N   
ATOM     4   N4  UNL     1       1.641  -0.963  -1.362  1.00  0.00    -0.075 NA  
ATOM     5   N5  UNL     1       0.927  -0.480  -0.358  1.00  0.00    -0.132 NA  
ATOM     6   H20 UNL     1       0.075   1.432  -2.915  1.00  0.00     0.083 HD  
ENDROOT
BRANCH   1   7
ATOM     7   C5  UNL     1      -0.785   1.265   0.081  1.00  0.00     0.120 C   
BRANCH   7   8
ATOM     8   C2  UNL     1      -0.165   2.435   0.922  1.00  0.00     0.010 C   
ATOM     9   C1  UNL     1      -1.272   3.180   1.703  1.00  0.00     0.017 C   
ATOM     10  C3  UNL     1       0.894   1.949   1.932  1.00  0.00     0.017 C   
ATOM     11  C4  UNL     1       0.498   3.471  -0.015  1.00  0.00     0.017 C   
ENDBRANCH   7   8
BRANCH   7  12
ATOM     12  N1  UNL     1      -1.406   0.232   0.991  1.00  0.00     0.250 N   
ATOM     13  H11 UNL     1      -1.844   0.647   1.817  1.00  0.00     0.199 HD  
ATOM     14  H12 UNL     1      -0.634  -0.356   1.339  1.00  0.00     0.199 HD  
BRANCH  12  15
ATOM     15  C6  UNL     1      -2.390  -0.678   0.339  1.00  0.00     0.164 C   
BRANCH  15  16
ATOM     16  C7  UNL     1      -2.883  -1.703   1.321  1.00  0.00    -0.002 A   
ATOM     17  C8  UNL     1      -4.074  -1.482   2.053  1.00  0.00     0.012 A   
ATOM     18  C12 UNL     1      -2.129  -2.866   1.557  1.00  0.00     0.045 A   
ATOM     19  C9  UNL     1      -4.515  -2.412   3.002  1.00  0.00     0.037 A   
ATOM     20  C11 UNL     1      -2.592  -3.760   2.499  1.00  0.00     0.109 A   
ATOM     21  C10 UNL     1      -3.751  -3.540   3.201  1.00  0.00     0.108 A   
ATOM     22  O1  UNL     1      -1.987  -4.926   2.847  1.00  0.00    -0.316 OA  
ATOM     23  O2  UNL     1      -4.024  -4.541   4.078  1.00  0.00    -0.316 OA  
ATOM     24  C13 UNL     1      -2.914  -5.432   3.834  1.00  0.00     0.337 C   
ENDBRANCH  15  16
ENDBRANCH  12  15
ENDBRANCH   7  12
ENDBRANCH   1   7
BRANCH   3  25
ATOM     25  C16 UNL     1       1.981  -0.560  -3.740  1.00  0.00     0.174 C   
BRANCH  25  26
ATOM     26  C17 UNL     1       0.963  -1.187  -4.710  1.00  0.00     0.187 C   
BRANCH  26  27
ATOM     27  O3  UNL     1      -0.127  -0.318  -5.032  1.00  0.00    -0.394 OA  
ATOM     28  H24 UNL     1       0.270   0.463  -5.477  1.00  0.00     0.210 HD  
ENDBRANCH  26  27
ENDBRANCH  25  26
BRANCH  25  29
ATOM     29  C18 UNL     1       2.698   0.650  -4.313  1.00  0.00     0.067 A   
ATOM     30  C19 UNL     1       4.031   0.902  -3.979  1.00  0.00     0.026 A   
ATOM     31  N3  UNL     1       1.988   1.483  -5.119  1.00  0.00    -0.239 NA  
ATOM     32  C20 UNL     1       4.660   2.029  -4.504  1.00  0.00     0.005 A   
ATOM     33  C22 UNL     1       2.633   2.567  -5.610  1.00  0.00     0.129 A   
ATOM     34  C21 UNL     1       3.950   2.883  -5.340  1.00  0.00     0.041 A   
ATOM     35  CL1 UNL     1       1.664   3.566  -6.608  1.00  0.00    -0.062 Cl  
ENDBRANCH  25  29
ENDBRANCH   3  25
TORSDOF 9
