REMARK SMILES CC(C)(C)[C@H]([NH2+]Cc1ccc2c(c1)OCO2)c1cn([C@H](CO)c2cccc(Cl)n2)nn1
REMARK SMILES IDX 17 1 18 2 19 3 30 4 31 5 5 7 2 8 1 9 3 10 4 11 6 12 7 15
REMARK SMILES IDX 8 16 9 17 13 18 10 19 12 20 11 21 14 22 16 23 15 24 20 25
REMARK SMILES IDX 21 26 22 27 23 29 24 30 29 31 25 32 27 33 26 34 28 35
REMARK H PARENT 18 6 6 13 6 14 22 28
ROOT
ATOM     1   C14 UNL     1       0.317  -0.005   1.959  1.00  0.00     0.127 A   
ATOM     2   C15 UNL     1      -0.927  -0.371   1.498  1.00  0.00     0.046 A   
ATOM     3   N2  UNL     1      -1.795   0.158   2.419  1.00  0.00    -0.201 N   
ATOM     4   N4  UNL     1      -1.113   0.768   3.413  1.00  0.00    -0.075 NA  
ATOM     5   N5  UNL     1       0.177   0.677   3.139  1.00  0.00    -0.132 NA  
ATOM     6   H20 UNL     1      -1.270  -0.866   0.600  1.00  0.00     0.083 HD  
ENDROOT
BRANCH   1   7
ATOM     7   C5  UNL     1       1.671  -0.126   1.331  1.00  0.00     0.120 C   
BRANCH   7   8
ATOM     8   C2  UNL     1       2.530  -1.321   1.873  1.00  0.00     0.010 C   
ATOM     9   C1  UNL     1       1.750  -2.647   1.720  1.00  0.00     0.017 C   
ATOM     10  C3  UNL     1       2.920  -1.158   3.356  1.00  0.00     0.017 C   
ATOM     11  C4  UNL     1       3.827  -1.464   1.044  1.00  0.00     0.017 C   
ENDBRANCH   7   8
BRANCH   7  12
ATOM     12  N1  UNL     1       2.404   1.188   1.530  1.00  0.00     0.250 N   
ATOM     13  H11 UNL     1       2.287   1.430   2.524  1.00  0.00     0.199 HD  
ATOM     14  H12 UNL     1       3.405   1.088   1.357  1.00  0.00     0.199 HD  
BRANCH  12  15
ATOM     15  C6  UNL     1       1.891   2.347   0.738  1.00  0.00     0.164 C   
BRANCH  15  16
ATOM     16  C7  UNL     1       2.235   2.244  -0.722  1.00  0.00    -0.002 A   
ATOM     17  C8  UNL     1       1.242   1.896  -1.667  1.00  0.00     0.012 A   
ATOM     18  C12 UNL     1       3.554   2.465  -1.155  1.00  0.00     0.045 A   
ATOM     19  C9  UNL     1       1.555   1.762  -3.025  1.00  0.00     0.037 A   
ATOM     20  C11 UNL     1       3.829   2.325  -2.499  1.00  0.00     0.109 A   
ATOM     21  C10 UNL     1       2.859   1.981  -3.408  1.00  0.00     0.108 A   
ATOM     22  O1  UNL     1       5.046   2.499  -3.077  1.00  0.00    -0.316 OA  
ATOM     23  O2  UNL     1       3.343   1.895  -4.673  1.00  0.00    -0.316 OA  
ATOM     24  C13 UNL     1       4.725   2.257  -4.466  1.00  0.00     0.337 C   
ENDBRANCH  15  16
ENDBRANCH  12  15
ENDBRANCH   7  12
ENDBRANCH   1   7
BRANCH   3  25
ATOM     25  C16 UNL     1      -3.256   0.176   2.411  1.00  0.00     0.174 C   
BRANCH  25  26
ATOM     26  C17 UNL     1      -3.849  -1.216   2.156  1.00  0.00     0.187 C   
BRANCH  26  27
ATOM     27  O3  UNL     1      -5.205  -1.265   2.604  1.00  0.00    -0.394 OA  
ATOM     28  H24 UNL     1      -5.547  -2.159   2.420  1.00  0.00     0.210 HD  
ENDBRANCH  26  27
ENDBRANCH  25  26
BRANCH  25  29
ATOM     29  C18 UNL     1      -3.767   1.193   1.401  1.00  0.00     0.067 A   
ATOM     30  C19 UNL     1      -4.857   2.004   1.724  1.00  0.00     0.026 A   
ATOM     31  N3  UNL     1      -3.158   1.260   0.184  1.00  0.00    -0.239 NA  
ATOM     32  C20 UNL     1      -5.325   2.922   0.786  1.00  0.00     0.005 A   
ATOM     33  C22 UNL     1      -3.640   2.163  -0.698  1.00  0.00     0.129 A   
ATOM     34  C21 UNL     1      -4.703   3.010  -0.454  1.00  0.00     0.041 A   
ATOM     35  CL1 UNL     1      -2.789   2.209  -2.186  1.00  0.00    -0.062 Cl  
ENDBRANCH  25  29
ENDBRANCH   3  25
TORSDOF 9
