REMARK SMILES COc1cccc(F)c1CCn1cc([C@@H]([NH2+]Cc2ccc3c(c2)OCO3)C(C)(C)C)nn1
REMARK SMILES IDX 12 1 13 2 14 3 31 4 32 5 11 7 10 8 9 9 3 10 4 11 5 12 7 13
REMARK SMILES IDX 6 14 8 15 2 16 1 17 15 18 16 19 17 22 18 23 19 24 23 25
REMARK SMILES IDX 20 26 22 27 21 28 24 29 26 30 25 31 27 32 28 33 29 34 30 35
REMARK H PARENT 13 6 16 20 16 21
ROOT
ATOM     1   N1  UNL     1       0.594  -2.103  -2.443  1.00  0.00    -0.212 N   
ATOM     2   C10 UNL     1       0.035  -1.133  -1.663  1.00  0.00     0.045 A   
ATOM     3   C11 UNL     1       0.886  -0.060  -1.812  1.00  0.00     0.127 A   
ATOM     4   N3  UNL     1       1.899  -0.404  -2.670  1.00  0.00    -0.132 NA  
ATOM     5   N4  UNL     1       1.708  -1.655  -3.050  1.00  0.00    -0.076 NA  
ATOM     6   H11 UNL     1      -0.856  -1.304  -1.074  1.00  0.00     0.083 HD  
ENDROOT
BRANCH   1   7
ATOM     7   C9  UNL     1       0.146  -3.465  -2.639  1.00  0.00     0.139 C   
BRANCH   7   8
ATOM     8   C8  UNL     1       0.875  -4.460  -1.736  1.00  0.00     0.063 C   
BRANCH   8   9
ATOM     9   C7  UNL     1       0.447  -4.391  -0.289  1.00  0.00     0.020 A   
ATOM     10  C2  UNL     1       1.225  -3.786   0.705  1.00  0.00     0.081 A   
ATOM     11  C3  UNL     1       0.793  -3.756   2.036  1.00  0.00     0.034 A   
ATOM     12  C4  UNL     1      -0.419  -4.343   2.393  1.00  0.00     0.006 A   
ATOM     13  C6  UNL     1      -0.771  -4.965   0.094  1.00  0.00     0.129 A   
ATOM     14  C5  UNL     1      -1.206  -4.947   1.416  1.00  0.00     0.040 A   
ATOM     15  F1  UNL     1      -1.549  -5.542  -0.836  1.00  0.00    -0.207 F   
BRANCH  10  16
ATOM     16  O1  UNL     1       2.386  -3.145   0.351  1.00  0.00    -0.349 OA  
ATOM     17  C1  UNL     1       3.525  -3.838   0.873  1.00  0.00     0.203 C   
ENDBRANCH  10  16
ENDBRANCH   8   9
ENDBRANCH   7   8
ENDBRANCH   1   7
BRANCH   3  18
ATOM     18  C12 UNL     1       0.920   1.273  -1.132  1.00  0.00     0.120 C   
BRANCH  18  19
ATOM     19  N2  UNL     1       2.363   1.601  -0.793  1.00  0.00     0.250 N   
ATOM     20  H13 UNL     1       2.473   2.584  -0.536  1.00  0.00     0.199 HD  
ATOM     21  H14 UNL     1       2.897   1.447  -1.661  1.00  0.00     0.199 HD  
BRANCH  19  22
ATOM     22  C13 UNL     1       3.001   0.752   0.259  1.00  0.00     0.164 C   
BRANCH  22  23
ATOM     23  C14 UNL     1       2.444   1.016   1.630  1.00  0.00    -0.002 A   
ATOM     24  C15 UNL     1       1.517   0.115   2.207  1.00  0.00     0.012 A   
ATOM     25  C19 UNL     1       2.809   2.176   2.333  1.00  0.00     0.045 A   
ATOM     26  C16 UNL     1       0.960   0.361   3.466  1.00  0.00     0.037 A   
ATOM     27  C18 UNL     1       2.243   2.389   3.573  1.00  0.00     0.109 A   
ATOM     28  C17 UNL     1       1.345   1.508   4.123  1.00  0.00     0.108 A   
ATOM     29  O2  UNL     1       2.484   3.457   4.378  1.00  0.00    -0.316 OA  
ATOM     30  O3  UNL     1       0.909   1.908   5.345  1.00  0.00    -0.316 OA  
ATOM     31  C20 UNL     1       1.652   3.134   5.516  1.00  0.00     0.337 C   
ENDBRANCH  22  23
ENDBRANCH  19  22
ENDBRANCH  18  19
BRANCH  18  32
ATOM     32  C21 UNL     1       0.275   2.440  -1.958  1.00  0.00     0.010 C   
ATOM     33  C22 UNL     1       0.209   3.727  -1.103  1.00  0.00     0.017 C   
ATOM     34  C23 UNL     1      -1.179   2.079  -2.339  1.00  0.00     0.017 C   
ATOM     35  C24 UNL     1       1.051   2.761  -3.251  1.00  0.00     0.017 C   
ENDBRANCH  18  32
ENDBRANCH   3  18
TORSDOF 9
