REMARK SMILES Cc1ccc([C@@H](O)Cn2cc([C@H](CC(C)C)[NH2+]Cc3ccc4c(c3)OCO4)nn2)cc1
REMARK SMILES IDX 9 1 10 2 11 3 28 4 29 5 8 7 6 8 5 9 2 10 3 11 31 12 4 13
REMARK SMILES IDX 30 14 1 15 7 16 12 18 13 19 14 20 15 21 16 22 17 23 18 26
REMARK SMILES IDX 19 27 20 28 24 29 21 30 23 31 22 32 25 33 27 34 26 35
REMARK H PARENT 10 6 7 17 17 24 17 25
ROOT
ATOM     1   N1  UNL     1      -3.415   0.487   0.166  1.00  0.00    -0.209 N   
ATOM     2   C8  UNL     1      -2.705   1.198  -0.760  1.00  0.00     0.045 A   
ATOM     3   C9  UNL     1      -1.982   0.237  -1.429  1.00  0.00     0.127 A   
ATOM     4   N3  UNL     1      -2.312  -1.000  -0.940  1.00  0.00    -0.132 NA  
ATOM     5   N4  UNL     1      -3.195  -0.834   0.030  1.00  0.00    -0.076 NA  
ATOM     6   H10 UNL     1      -2.728   2.279  -0.800  1.00  0.00     0.083 HD  
ENDROOT
BRANCH   1   7
ATOM     7   C7  UNL     1      -4.234   0.980   1.254  1.00  0.00     0.170 C   
BRANCH   7   8
ATOM     8   C6  UNL     1      -3.487   1.912   2.226  1.00  0.00     0.164 C   
BRANCH   8   9
ATOM     9   C5  UNL     1      -2.105   1.436   2.648  1.00  0.00    -0.018 A   
ATOM     10  C2  UNL     1       0.447   0.516   3.462  1.00  0.00    -0.051 A   
ATOM     11  C3  UNL     1       0.300   1.778   2.882  1.00  0.00     0.004 A   
ATOM     12  C24 UNL     1      -0.689  -0.277   3.652  1.00  0.00     0.004 A   
ATOM     13  C4  UNL     1      -0.959   2.230   2.474  1.00  0.00     0.007 A   
ATOM     14  C23 UNL     1      -1.949   0.178   3.252  1.00  0.00     0.007 A   
ATOM     15  C1  UNL     1       1.786   0.051   3.955  1.00  0.00     0.044 C   
ENDBRANCH   8   9
BRANCH   8  16
ATOM     16  O1  UNL     1      -3.421   3.219   1.638  1.00  0.00    -0.387 OA  
ATOM     17  H7  UNL     1      -3.398   3.852   2.379  1.00  0.00     0.211 HD  
ENDBRANCH   8  16
ENDBRANCH   7   8
ENDBRANCH   1   7
BRANCH   3  18
ATOM     18  C10 UNL     1      -0.864   0.359  -2.401  1.00  0.00     0.114 C   
BRANCH  18  19
ATOM     19  C11 UNL     1      -1.180  -0.207  -3.797  1.00  0.00     0.064 C   
BRANCH  19  20
ATOM     20  C12 UNL     1      -2.219   0.545  -4.660  1.00  0.00    -0.012 C   
ATOM     21  C13 UNL     1      -1.960   2.049  -4.731  1.00  0.00     0.007 C   
ATOM     22  C14 UNL     1      -3.666   0.263  -4.253  1.00  0.00     0.007 C   
ENDBRANCH  19  20
ENDBRANCH  18  19
BRANCH  18  23
ATOM     23  N2  UNL     1       0.316  -0.430  -1.867  1.00  0.00     0.249 N   
ATOM     24  H21 UNL     1       1.043  -0.542  -2.580  1.00  0.00     0.199 HD  
ATOM     25  H22 UNL     1      -0.036  -1.376  -1.653  1.00  0.00     0.199 HD  
BRANCH  23  26
ATOM     26  C15 UNL     1       0.928   0.102  -0.615  1.00  0.00     0.164 C   
BRANCH  26  27
ATOM     27  C16 UNL     1       2.048  -0.790  -0.161  1.00  0.00    -0.002 A   
ATOM     28  C17 UNL     1       1.773  -1.896   0.680  1.00  0.00     0.012 A   
ATOM     29  C21 UNL     1       3.360  -0.571  -0.611  1.00  0.00     0.045 A   
ATOM     30  C18 UNL     1       2.792  -2.768   1.077  1.00  0.00     0.037 A   
ATOM     31  C20 UNL     1       4.341  -1.450  -0.200  1.00  0.00     0.109 A   
ATOM     32  C19 UNL     1       4.066  -2.518   0.618  1.00  0.00     0.108 A   
ATOM     33  O2  UNL     1       5.654  -1.384  -0.546  1.00  0.00    -0.316 OA  
ATOM     34  O3  UNL     1       5.171  -3.257   0.893  1.00  0.00    -0.316 OA  
ATOM     35  C22 UNL     1       6.182  -2.526   0.166  1.00  0.00     0.337 C   
ENDBRANCH  26  27
ENDBRANCH  23  26
ENDBRANCH  18  23
ENDBRANCH   3  18
TORSDOF 10
