REMARK SMILES Cc1ccc([C@H](O)Cn2cc([C@H](CC(C)C)[NH2+]Cc3ccc4c(c3)OCO4)nn2)cc1
REMARK SMILES IDX 9 1 10 2 11 3 28 4 29 5 8 7 6 8 5 9 2 10 3 11 31 12 4 13
REMARK SMILES IDX 30 14 1 15 7 16 12 18 13 19 14 20 15 21 16 22 17 23 18 26
REMARK SMILES IDX 19 27 20 28 24 29 21 30 23 31 22 32 25 33 27 34 26 35
REMARK H PARENT 10 6 7 17 17 24 17 25
ROOT
ATOM     1   N1  UNL     1      -2.474   1.778   0.516  1.00  0.00    -0.209 N   
ATOM     2   C8  UNL     1      -2.368   0.446   0.798  1.00  0.00     0.045 A   
ATOM     3   C9  UNL     1      -1.352   0.012  -0.027  1.00  0.00     0.127 A   
ATOM     4   N3  UNL     1      -0.958   1.052  -0.835  1.00  0.00    -0.132 NA  
ATOM     5   N4  UNL     1      -1.667   2.118  -0.507  1.00  0.00    -0.076 NA  
ATOM     6   H10 UNL     1      -2.966  -0.029   1.566  1.00  0.00     0.083 HD  
ENDROOT
BRANCH   1   7
ATOM     7   C7  UNL     1      -3.320   2.770   1.147  1.00  0.00     0.170 C   
BRANCH   7   8
ATOM     8   C6  UNL     1      -2.918   3.098   2.593  1.00  0.00     0.164 C   
BRANCH   8   9
ATOM     9   C5  UNL     1      -1.453   3.446   2.775  1.00  0.00    -0.018 A   
ATOM     10  C2  UNL     1       1.276   4.133   3.047  1.00  0.00    -0.051 A   
ATOM     11  C3  UNL     1       0.808   2.893   3.495  1.00  0.00     0.004 A   
ATOM     12  C24 UNL     1       0.377   5.019   2.441  1.00  0.00     0.004 A   
ATOM     13  C4  UNL     1      -0.542   2.553   3.360  1.00  0.00     0.007 A   
ATOM     14  C23 UNL     1      -0.973   4.683   2.312  1.00  0.00     0.007 A   
ATOM     15  C1  UNL     1       2.730   4.479   3.163  1.00  0.00     0.044 C   
ENDBRANCH   8   9
BRANCH   8  16
ATOM     16  O1  UNL     1      -3.319   2.031   3.462  1.00  0.00    -0.387 OA  
ATOM     17  H7  UNL     1      -3.053   2.296   4.362  1.00  0.00     0.211 HD  
ENDBRANCH   8  16
ENDBRANCH   7   8
ENDBRANCH   1   7
BRANCH   3  18
ATOM     18  C10 UNL     1      -0.693  -1.322  -0.187  1.00  0.00     0.114 C   
BRANCH  18  19
ATOM     19  C11 UNL     1       0.350  -1.604   0.913  1.00  0.00     0.064 C   
BRANCH  19  20
ATOM     20  C12 UNL     1      -0.232  -1.865   2.320  1.00  0.00    -0.012 C   
ATOM     21  C13 UNL     1      -1.035  -3.165   2.374  1.00  0.00     0.007 C   
ATOM     22  C14 UNL     1       0.900  -1.909   3.349  1.00  0.00     0.007 C   
ENDBRANCH  19  20
ENDBRANCH  18  19
BRANCH  18  23
ATOM     23  N2  UNL     1       0.025  -1.326  -1.517  1.00  0.00     0.249 N   
ATOM     24  H21 UNL     1      -0.517  -0.723  -2.155  1.00  0.00     0.199 HD  
ATOM     25  H22 UNL     1       0.905  -0.804  -1.419  1.00  0.00     0.199 HD  
BRANCH  23  26
ATOM     26  C15 UNL     1       0.261  -2.632  -2.170  1.00  0.00     0.164 C   
BRANCH  26  27
ATOM     27  C16 UNL     1       0.992  -2.440  -3.470  1.00  0.00    -0.002 A   
ATOM     28  C17 UNL     1       0.275  -2.238  -4.673  1.00  0.00     0.012 A   
ATOM     29  C21 UNL     1       2.397  -2.395  -3.487  1.00  0.00     0.045 A   
ATOM     30  C18 UNL     1       0.945  -2.003  -5.879  1.00  0.00     0.037 A   
ATOM     31  C20 UNL     1       3.027  -2.159  -4.693  1.00  0.00     0.109 A   
ATOM     32  C19 UNL     1       2.322  -1.967  -5.855  1.00  0.00     0.108 A   
ATOM     33  O2  UNL     1       4.371  -2.083  -4.881  1.00  0.00    -0.316 OA  
ATOM     34  O3  UNL     1       3.133  -1.748  -6.923  1.00  0.00    -0.316 OA  
ATOM     35  C22 UNL     1       4.435  -1.851  -6.307  1.00  0.00     0.337 C   
ENDBRANCH  26  27
ENDBRANCH  23  26
ENDBRANCH  18  23
ENDBRANCH   3  18
TORSDOF 10
