REMARK SMILES CC(C)C[C@H]([NH2+]Cc1ccc2c(c1)OCO2)c1cn(CCc2cc(F)ccn2)nn1
REMARK SMILES IDX 17 1 18 2 19 3 29 4 30 5 5 7 4 8 2 9 1 10 3 11 6 12 7 15
REMARK SMILES IDX 8 16 9 17 13 18 10 19 12 20 11 21 14 22 16 23 15 24 20 25
REMARK SMILES IDX 21 26 22 27 23 28 28 29 24 30 27 31 26 32 25 33
REMARK H PARENT 18 6 6 13 6 14
ROOT
ATOM     1   C14 UNL     1      -1.052   1.577  -1.192  1.00  0.00     0.127 A   
ATOM     2   C15 UNL     1      -0.845   2.902  -0.875  1.00  0.00     0.045 A   
ATOM     3   N2  UNL     1      -0.037   3.359  -1.877  1.00  0.00    -0.212 N   
ATOM     4   N4  UNL     1       0.200   2.393  -2.784  1.00  0.00    -0.076 NA  
ATOM     5   N5  UNL     1      -0.410   1.295  -2.373  1.00  0.00    -0.132 NA  
ATOM     6   H20 UNL     1      -1.157   3.535  -0.056  1.00  0.00     0.083 HD  
ENDROOT
BRANCH   1   7
ATOM     7   C5  UNL     1      -1.836   0.498  -0.520  1.00  0.00     0.114 C   
BRANCH   7   8
ATOM     8   C4  UNL     1      -1.667   0.423   1.010  1.00  0.00     0.064 C   
BRANCH   8   9
ATOM     9   C2  UNL     1      -0.380  -0.216   1.584  1.00  0.00    -0.012 C   
ATOM     10  C1  UNL     1      -0.472  -0.257   3.115  1.00  0.00     0.007 C   
ATOM     11  C3  UNL     1       0.900   0.511   1.177  1.00  0.00     0.007 C   
ENDBRANCH   8   9
ENDBRANCH   7   8
BRANCH   7  12
ATOM     12  N1  UNL     1      -1.528  -0.824  -1.161  1.00  0.00     0.249 N   
ATOM     13  H11 UNL     1      -1.377  -0.627  -2.165  1.00  0.00     0.199 HD  
ATOM     14  H12 UNL     1      -0.608  -1.161  -0.857  1.00  0.00     0.199 HD  
BRANCH  12  15
ATOM     15  C6  UNL     1      -2.552  -1.886  -1.035  1.00  0.00     0.164 C   
BRANCH  15  16
ATOM     16  C7  UNL     1      -2.048  -3.180  -1.605  1.00  0.00    -0.002 A   
ATOM     17  C8  UNL     1      -2.128  -3.432  -2.995  1.00  0.00     0.012 A   
ATOM     18  C12 UNL     1      -1.445  -4.130  -0.764  1.00  0.00     0.045 A   
ATOM     19  C9  UNL     1      -1.627  -4.619  -3.539  1.00  0.00     0.037 A   
ATOM     20  C11 UNL     1      -0.964  -5.289  -1.332  1.00  0.00     0.109 A   
ATOM     21  C10 UNL     1      -1.052  -5.528  -2.681  1.00  0.00     0.108 A   
ATOM     22  O1  UNL     1      -0.362  -6.307  -0.662  1.00  0.00    -0.316 OA  
ATOM     23  O2  UNL     1      -0.518  -6.726  -3.031  1.00  0.00    -0.316 OA  
ATOM     24  C13 UNL     1      -0.092  -7.225  -1.746  1.00  0.00     0.337 C   
ENDBRANCH  15  16
ENDBRANCH  12  15
ENDBRANCH   7  12
ENDBRANCH   1   7
BRANCH   3  25
ATOM     25  C16 UNL     1       0.524   4.683  -2.047  1.00  0.00     0.140 C   
BRANCH  25  26
ATOM     26  C17 UNL     1       2.047   4.702  -1.936  1.00  0.00     0.077 C   
BRANCH  26  27
ATOM     27  C18 UNL     1       2.560   4.302  -0.575  1.00  0.00     0.045 A   
ATOM     28  C19 UNL     1       3.791   3.674  -0.452  1.00  0.00     0.063 A   
ATOM     29  N3  UNL     1       1.812   4.642   0.504  1.00  0.00    -0.261 NA  
ATOM     30  C20 UNL     1       4.249   3.382   0.823  1.00  0.00     0.126 A   
ATOM     31  C22 UNL     1       2.311   4.362   1.732  1.00  0.00     0.114 A   
ATOM     32  C21 UNL     1       3.517   3.731   1.943  1.00  0.00     0.059 A   
ATOM     33  F1  UNL     1       5.414   2.743   0.970  1.00  0.00    -0.207 F   
ENDBRANCH  26  27
ENDBRANCH  25  26
ENDBRANCH   3  25
TORSDOF 9
