REMARK SMILES COc1cc(Cn2cc([C@@H]([NH2+]Cc3ccc4c(c3)OCO4)C3CCCC3)nn2)cc(OC)c1
REMARK SMILES IDX 7 1 8 2 9 3 27 4 28 5 6 7 5 8 3 9 4 10 33 11 30 12 29 13
REMARK SMILES IDX 2 14 1 15 31 16 32 17 10 18 11 19 12 22 13 23 14 24 18 25
REMARK SMILES IDX 15 26 17 27 16 28 19 29 21 30 20 31 22 32 23 33 26 34 24 35
REMARK SMILES IDX 25 36
REMARK H PARENT 8 6 11 20 11 21
ROOT
ATOM     1   N1  UNL     1       2.324  -1.275  -1.364  1.00  0.00    -0.208 N   
ATOM     2   C6  UNL     1       1.259  -1.115  -0.518  1.00  0.00     0.046 A   
ATOM     3   C7  UNL     1       0.745   0.119  -0.846  1.00  0.00     0.127 A   
ATOM     4   N3  UNL     1       1.511   0.672  -1.839  1.00  0.00    -0.132 NA  
ATOM     5   N4  UNL     1       2.471  -0.184  -2.145  1.00  0.00    -0.076 NA  
ATOM     6   H7  UNL     1       0.971  -1.865   0.206  1.00  0.00     0.083 HD  
ENDROOT
BRANCH   1   7
ATOM     7   C5  UNL     1       3.223  -2.407  -1.550  1.00  0.00     0.169 C   
BRANCH   7   8
ATOM     8   C4  UNL     1       3.239  -3.363  -0.386  1.00  0.00    -0.023 A   
ATOM     9   C2  UNL     1       2.405  -5.374   0.708  1.00  0.00     0.077 A   
ATOM     10  C3  UNL     1       2.409  -4.492  -0.377  1.00  0.00     0.039 A   
ATOM     11  C25 UNL     1       3.245  -5.133   1.798  1.00  0.00     0.066 A   
ATOM     12  C23 UNL     1       4.083  -4.015   1.802  1.00  0.00     0.077 A   
ATOM     13  C22 UNL     1       4.069  -3.132   0.718  1.00  0.00     0.039 A   
BRANCH   9  14
ATOM     14  O1  UNL     1       1.530  -6.418   0.579  1.00  0.00    -0.349 OA  
ATOM     15  C1  UNL     1       1.538  -7.403   1.606  1.00  0.00     0.203 C   
ENDBRANCH   9  14
BRANCH  12  16
ATOM     16  O4  UNL     1       4.943  -3.662   2.806  1.00  0.00    -0.349 OA  
ATOM     17  C24 UNL     1       5.205  -4.644   3.804  1.00  0.00     0.203 C   
ENDBRANCH  12  16
ENDBRANCH   7   8
ENDBRANCH   1   7
BRANCH   3  18
ATOM     18  C8  UNL     1      -0.403   0.897  -0.286  1.00  0.00     0.117 C   
BRANCH  18  19
ATOM     19  N2  UNL     1      -0.151   2.375  -0.475  1.00  0.00     0.249 N   
ATOM     20  H9  UNL     1      -1.020   2.917  -0.445  1.00  0.00     0.199 HD  
ATOM     21  H10 UNL     1       0.226   2.486  -1.429  1.00  0.00     0.199 HD  
BRANCH  19  22
ATOM     22  C9  UNL     1       0.836   2.980   0.460  1.00  0.00     0.164 C   
BRANCH  22  23
ATOM     23  C10 UNL     1       1.116   4.403   0.068  1.00  0.00    -0.002 A   
ATOM     24  C11 UNL     1       2.118   4.689  -0.890  1.00  0.00     0.012 A   
ATOM     25  C15 UNL     1       0.344   5.451   0.597  1.00  0.00     0.045 A   
ATOM     26  C12 UNL     1       2.357   6.003  -1.309  1.00  0.00     0.037 A   
ATOM     27  C14 UNL     1       0.605   6.733   0.160  1.00  0.00     0.109 A   
ATOM     28  C13 UNL     1       1.580   7.003  -0.767  1.00  0.00     0.108 A   
ATOM     29  O2  UNL     1      -0.048   7.853   0.567  1.00  0.00    -0.316 OA  
ATOM     30  O3  UNL     1       1.664   8.326  -1.061  1.00  0.00    -0.316 OA  
ATOM     31  C16 UNL     1       0.634   8.866  -0.206  1.00  0.00     0.337 C   
ENDBRANCH  22  23
ENDBRANCH  19  22
ENDBRANCH  18  19
BRANCH  18  32
ATOM     32  C17 UNL     1      -1.770   0.578  -0.918  1.00  0.00     0.043 C   
ATOM     33  C18 UNL     1      -2.238  -0.871  -0.767  1.00  0.00     0.010 C   
ATOM     34  C21 UNL     1      -1.892   0.798  -2.429  1.00  0.00     0.010 C   
ATOM     35  C19 UNL     1      -3.435  -0.958  -1.707  1.00  0.00     0.001 C   
ATOM     36  C20 UNL     1      -3.173   0.061  -2.817  1.00  0.00     0.001 C   
ENDBRANCH  18  32
ENDBRANCH   3  18
TORSDOF 9
