REMARK SMILES C[C@H](Cn1cc([C@@H]([NH2+]Cc2ccc3c(c2)OCO3)C2CCCCC2)nn1)c1ccccn1
REMARK SMILES IDX 4 1 5 2 6 3 25 4 26 5 3 7 2 8 1 9 27 10 28 11 32 12 29 13
REMARK SMILES IDX 31 14 30 15 7 16 8 17 9 20 10 21 11 22 15 23 12 24 14 25
REMARK SMILES IDX 13 26 16 27 18 28 17 29 19 30 20 31 24 32 21 33 23 34 22 35
REMARK H PARENT 5 6 8 18 8 19
ROOT
ATOM     1   N1  UNL     1      -2.365   0.668  -0.705  1.00  0.00    -0.211 N   
ATOM     2   C4  UNL     1      -1.187   0.845  -1.373  1.00  0.00     0.045 A   
ATOM     3   C5  UNL     1      -0.449  -0.265  -1.034  1.00  0.00     0.127 A   
ATOM     4   N3  UNL     1      -1.210  -1.096  -0.255  1.00  0.00    -0.132 NA  
ATOM     5   N4  UNL     1      -2.386  -0.520  -0.071  1.00  0.00    -0.076 NA  
ATOM     6   H7  UNL     1      -0.971   1.743  -1.932  1.00  0.00     0.083 HD  
ENDROOT
BRANCH   1   7
ATOM     7   C3  UNL     1      -3.498   1.562  -0.626  1.00  0.00     0.143 C   
BRANCH   7   8
ATOM     8   C2  UNL     1      -3.467   2.565   0.539  1.00  0.00     0.054 C   
ATOM     9   C1  UNL     1      -3.304   1.903   1.910  1.00  0.00     0.016 C   
BRANCH   8  10
ATOM     10  C21 UNL     1      -2.433   3.658   0.326  1.00  0.00     0.045 A   
ATOM     11  C22 UNL     1      -2.850   4.933  -0.054  1.00  0.00     0.024 A   
ATOM     12  N5  UNL     1      -1.122   3.349   0.509  1.00  0.00    -0.261 NA  
ATOM     13  C23 UNL     1      -1.897   5.932  -0.235  1.00  0.00     0.003 A   
ATOM     14  C25 UNL     1      -0.224   4.350   0.349  1.00  0.00     0.111 A   
ATOM     15  C24 UNL     1      -0.557   5.639  -0.025  1.00  0.00     0.020 A   
ENDBRANCH   8  10
ENDBRANCH   7   8
ENDBRANCH   1   7
BRANCH   3  16
ATOM     16  C6  UNL     1       0.988  -0.593  -1.269  1.00  0.00     0.117 C   
BRANCH  16  17
ATOM     17  N2  UNL     1       1.622  -0.921   0.061  1.00  0.00     0.249 N   
ATOM     18  H9  UNL     1       2.580  -1.260  -0.048  1.00  0.00     0.199 HD  
ATOM     19  H10 UNL     1       1.077  -1.691   0.474  1.00  0.00     0.199 HD  
BRANCH  17  20
ATOM     20  C7  UNL     1       1.633   0.195   1.055  1.00  0.00     0.164 C   
BRANCH  20  21
ATOM     21  C8  UNL     1       2.451  -0.191   2.257  1.00  0.00    -0.002 A   
ATOM     22  C9  UNL     1       3.835   0.097   2.302  1.00  0.00     0.012 A   
ATOM     23  C13 UNL     1       1.855  -0.896   3.317  1.00  0.00     0.045 A   
ATOM     24  C10 UNL     1       4.614  -0.297   3.395  1.00  0.00     0.037 A   
ATOM     25  C12 UNL     1       2.653  -1.276   4.375  1.00  0.00     0.109 A   
ATOM     26  C11 UNL     1       3.994  -0.983   4.414  1.00  0.00     0.108 A   
ATOM     27  O1  UNL     1       2.240  -1.967   5.468  1.00  0.00    -0.316 OA  
ATOM     28  O2  UNL     1       4.593  -1.444   5.543  1.00  0.00    -0.316 OA  
ATOM     29  C14 UNL     1       3.477  -2.070   6.211  1.00  0.00     0.337 C   
ENDBRANCH  20  21
ENDBRANCH  17  20
ENDBRANCH  16  17
BRANCH  16  30
ATOM     30  C15 UNL     1       1.171  -1.787  -2.253  1.00  0.00     0.043 C   
ATOM     31  C16 UNL     1       2.650  -2.195  -2.429  1.00  0.00     0.010 C   
ATOM     32  C20 UNL     1       0.559  -1.448  -3.634  1.00  0.00     0.010 C   
ATOM     33  C17 UNL     1       2.835  -3.304  -3.464  1.00  0.00     0.001 C   
ATOM     34  C19 UNL     1       0.750  -2.567  -4.653  1.00  0.00     0.001 C   
ATOM     35  C18 UNL     1       2.218  -2.940  -4.807  1.00  0.00     0.000 C   
ENDBRANCH  16  30
ENDBRANCH   3  16
TORSDOF 8
