REMARK SMILES C[C@@H](Cn1cc([C@@H]([NH2+]Cc2ccc3c(c2)OCO3)C2CCCCC2)nn1)c1ccccn1
REMARK SMILES IDX 4 1 5 2 6 3 25 4 26 5 3 7 2 8 1 9 27 10 28 11 32 12 29 13
REMARK SMILES IDX 31 14 30 15 7 16 8 17 9 20 10 21 11 22 15 23 12 24 14 25
REMARK SMILES IDX 13 26 16 27 18 28 17 29 19 30 20 31 24 32 21 33 23 34 22 35
REMARK H PARENT 5 6 8 18 8 19
ROOT
ATOM     1   N1  UNL     1       1.041   0.955   1.464  1.00  0.00    -0.211 N   
ATOM     2   C4  UNL     1      -0.147   0.712   0.835  1.00  0.00     0.045 A   
ATOM     3   C5  UNL     1      -0.422  -0.601   1.137  1.00  0.00     0.127 A   
ATOM     4   N3  UNL     1       0.597  -1.106   1.909  1.00  0.00    -0.132 NA  
ATOM     5   N4  UNL     1       1.486  -0.146   2.099  1.00  0.00    -0.076 NA  
ATOM     6   H7  UNL     1      -0.654   1.470   0.253  1.00  0.00     0.083 HD  
ENDROOT
BRANCH   1   7
ATOM     7   C3  UNL     1       1.774   2.202   1.555  1.00  0.00     0.143 C   
BRANCH   7   8
ATOM     8   C2  UNL     1       2.971   2.267   0.596  1.00  0.00     0.054 C   
ATOM     9   C1  UNL     1       3.820   3.502   0.909  1.00  0.00     0.016 C   
BRANCH   8  10
ATOM     10  C21 UNL     1       2.548   2.303  -0.861  1.00  0.00     0.045 A   
ATOM     11  C22 UNL     1       3.377   1.760  -1.840  1.00  0.00     0.024 A   
ATOM     12  N5  UNL     1       1.385   2.934  -1.164  1.00  0.00    -0.261 NA  
ATOM     13  C23 UNL     1       3.004   1.873  -3.176  1.00  0.00     0.003 A   
ATOM     14  C25 UNL     1       1.054   3.035  -2.472  1.00  0.00     0.111 A   
ATOM     15  C24 UNL     1       1.821   2.523  -3.503  1.00  0.00     0.020 A   
ENDBRANCH   8  10
ENDBRANCH   7   8
ENDBRANCH   1   7
BRANCH   3  16
ATOM     16  C6  UNL     1      -1.550  -1.501   0.749  1.00  0.00     0.117 C   
BRANCH  16  17
ATOM     17  N2  UNL     1      -1.077  -2.943   0.840  1.00  0.00     0.249 N   
ATOM     18  H9  UNL     1      -1.696  -3.491   1.443  1.00  0.00     0.199 HD  
ATOM     19  H10 UNL     1      -0.175  -2.909   1.341  1.00  0.00     0.199 HD  
BRANCH  17  20
ATOM     20  C7  UNL     1      -0.884  -3.663  -0.445  1.00  0.00     0.164 C   
BRANCH  20  21
ATOM     21  C8  UNL     1       0.125  -3.044  -1.372  1.00  0.00    -0.002 A   
ATOM     22  C9  UNL     1       1.480  -2.901  -0.985  1.00  0.00     0.012 A   
ATOM     23  C13 UNL     1      -0.270  -2.624  -2.654  1.00  0.00     0.045 A   
ATOM     24  C10 UNL     1       2.425  -2.347  -1.856  1.00  0.00     0.037 A   
ATOM     25  C12 UNL     1       0.687  -2.090  -3.491  1.00  0.00     0.109 A   
ATOM     26  C11 UNL     1       1.998  -1.956  -3.106  1.00  0.00     0.108 A   
ATOM     27  O1  UNL     1       0.471  -1.654  -4.760  1.00  0.00    -0.316 OA  
ATOM     28  O2  UNL     1       2.775  -1.425  -4.085  1.00  0.00    -0.316 OA  
ATOM     29  C14 UNL     1       1.809  -1.271  -5.147  1.00  0.00     0.337 C   
ENDBRANCH  20  21
ENDBRANCH  17  20
ENDBRANCH  16  17
BRANCH  16  30
ATOM     30  C15 UNL     1      -2.825  -1.348   1.621  1.00  0.00     0.043 C   
ATOM     31  C16 UNL     1      -3.545  -0.013   1.349  1.00  0.00     0.010 C   
ATOM     32  C20 UNL     1      -2.579  -1.516   3.134  1.00  0.00     0.010 C   
ATOM     33  C17 UNL     1      -4.844   0.097   2.145  1.00  0.00     0.001 C   
ATOM     34  C19 UNL     1      -3.878  -1.400   3.930  1.00  0.00     0.001 C   
ATOM     35  C18 UNL     1      -4.605  -0.091   3.639  1.00  0.00     0.000 C   
ENDBRANCH  16  30
ENDBRANCH   3  16
TORSDOF 8
