REMARK SMILES Oc1ccc(CCn2cc([C@@H]([NH2+]Cc3ccc4c(c3)OCO4)C3CCCCC3)nn2)cc1
REMARK SMILES IDX 8 1 9 2 10 3 29 4 30 5 7 7 6 8 5 9 2 10 3 11 32 12 4 13
REMARK SMILES IDX 31 14 1 15 11 17 12 18 13 21 14 22 15 23 19 24 16 25 18 26
REMARK SMILES IDX 17 27 20 28 22 29 21 30 23 31 24 32 28 33 25 34 27 35 26 36
REMARK H PARENT 9 6 1 16 12 19 12 20
ROOT
ATOM     1   N1  UNL     1      -1.430   0.020  -3.451  1.00  0.00    -0.212 N   
ATOM     2   C7  UNL     1      -0.774  -0.699  -2.491  1.00  0.00     0.045 A   
ATOM     3   C8  UNL     1      -1.582  -0.582  -1.383  1.00  0.00     0.127 A   
ATOM     4   N3  UNL     1      -2.680   0.175  -1.701  1.00  0.00    -0.132 NA  
ATOM     5   N4  UNL     1      -2.579   0.529  -2.972  1.00  0.00    -0.076 NA  
ATOM     6   H8  UNL     1       0.182  -1.171  -2.670  1.00  0.00     0.083 HD  
ENDROOT
BRANCH   1   7
ATOM     7   C6  UNL     1      -0.984   0.325  -4.794  1.00  0.00     0.139 C   
BRANCH   7   8
ATOM     8   C5  UNL     1      -0.620   1.800  -4.988  1.00  0.00     0.057 C   
BRANCH   8   9
ATOM     9   C4  UNL     1       0.418   2.295  -4.005  1.00  0.00    -0.046 A   
ATOM     10  C1  UNL     1       2.297   3.158  -2.130  1.00  0.00     0.071 A   
ATOM     11  C2  UNL     1       0.989   3.616  -2.051  1.00  0.00     0.033 A   
ATOM     12  C25 UNL     1       2.689   2.286  -3.141  1.00  0.00     0.033 A   
ATOM     13  C3  UNL     1       0.049   3.184  -2.985  1.00  0.00     0.006 A   
ATOM     14  C24 UNL     1       1.748   1.857  -4.081  1.00  0.00     0.006 A   
BRANCH  10  15
ATOM     15  O1  UNL     1       3.172   3.582  -1.176  1.00  0.00    -0.361 OA  
ATOM     16  H1  UNL     1       4.060   3.253  -1.393  1.00  0.00     0.218 HD  
ENDBRANCH  10  15
ENDBRANCH   8   9
ENDBRANCH   7   8
ENDBRANCH   1   7
BRANCH   3  17
ATOM     17  C9  UNL     1      -1.386  -1.037   0.028  1.00  0.00     0.117 C   
BRANCH  17  18
ATOM     18  N2  UNL     1      -1.584   0.155   0.943  1.00  0.00     0.249 N   
ATOM     19  H10 UNL     1      -2.495   0.562   0.688  1.00  0.00     0.199 HD  
ATOM     20  H11 UNL     1      -1.639  -0.133   1.921  1.00  0.00     0.199 HD  
BRANCH  18  21
ATOM     21  C10 UNL     1      -0.560   1.241   0.841  1.00  0.00     0.164 C   
BRANCH  21  22
ATOM     22  C11 UNL     1       0.788   0.813   1.351  1.00  0.00    -0.002 A   
ATOM     23  C12 UNL     1       1.024   0.687   2.741  1.00  0.00     0.012 A   
ATOM     24  C16 UNL     1       1.816   0.501   0.445  1.00  0.00     0.045 A   
ATOM     25  C13 UNL     1       2.264   0.255   3.222  1.00  0.00     0.037 A   
ATOM     26  C15 UNL     1       3.027   0.079   0.951  1.00  0.00     0.109 A   
ATOM     27  C14 UNL     1       3.244  -0.043   2.301  1.00  0.00     0.108 A   
ATOM     28  O2  UNL     1       4.117  -0.261   0.215  1.00  0.00    -0.316 OA  
ATOM     29  O3  UNL     1       4.499  -0.476   2.587  1.00  0.00    -0.316 OA  
ATOM     30  C17 UNL     1       5.057  -0.601   1.262  1.00  0.00     0.337 C   
ENDBRANCH  21  22
ENDBRANCH  18  21
ENDBRANCH  17  18
BRANCH  17  31
ATOM     31  C18 UNL     1      -2.373  -2.176   0.429  1.00  0.00     0.043 C   
ATOM     32  C19 UNL     1      -2.198  -3.398  -0.505  1.00  0.00     0.010 C   
ATOM     33  C23 UNL     1      -2.194  -2.622   1.898  1.00  0.00     0.010 C   
ATOM     34  C20 UNL     1      -3.099  -4.569  -0.118  1.00  0.00     0.001 C   
ATOM     35  C22 UNL     1      -3.086  -3.805   2.269  1.00  0.00     0.001 C   
ATOM     36  C21 UNL     1      -2.887  -4.984   1.330  1.00  0.00     0.000 C   
ENDBRANCH  17  31
ENDBRANCH   3  17
TORSDOF 9
