REMARK SMILES COc1cc(F)ccc1Cn1cc([C@@H]([NH2+]Cc2ccc3c(c2)OCO3)C(C)C)nn1
REMARK SMILES IDX 11 1 12 2 13 3 29 4 30 5 10 7 9 8 3 9 4 10 5 11 8 12 7 13
REMARK SMILES IDX 6 14 2 15 1 16 14 17 15 18 16 21 17 22 18 23 22 24 19 25
REMARK SMILES IDX 21 26 20 27 23 28 25 29 24 30 26 31 27 32 28 33
REMARK H PARENT 12 6 15 19 15 20
ROOT
ATOM     1   N1  UNL     1       1.320  -1.153   1.326  1.00  0.00    -0.208 N   
ATOM     2   C9  UNL     1      -0.004  -0.921   1.586  1.00  0.00     0.046 A   
ATOM     3   C10 UNL     1      -0.552  -0.693   0.345  1.00  0.00     0.127 A   
ATOM     4   N3  UNL     1       0.429  -0.801  -0.608  1.00  0.00    -0.132 NA  
ATOM     5   N4  UNL     1       1.567  -1.084   0.003  1.00  0.00    -0.076 NA  
ATOM     6   H9  UNL     1      -0.402  -0.926   2.592  1.00  0.00     0.083 HD  
ENDROOT
BRANCH   1   7
ATOM     7   C8  UNL     1       2.384  -1.456   2.266  1.00  0.00     0.172 C   
BRANCH   7   8
ATOM     8   C7  UNL     1       3.057  -0.192   2.746  1.00  0.00     0.002 A   
ATOM     9   C2  UNL     1       2.586   0.506   3.877  1.00  0.00     0.082 A   
ATOM     10  C3  UNL     1       3.224   1.683   4.277  1.00  0.00     0.073 A   
ATOM     11  C4  UNL     1       4.321   2.154   3.561  1.00  0.00     0.125 A   
ATOM     12  C6  UNL     1       4.165   0.309   2.035  1.00  0.00     0.011 A   
ATOM     13  C5  UNL     1       4.797   1.479   2.446  1.00  0.00     0.040 A   
ATOM     14  F1  UNL     1       4.921   3.285   3.951  1.00  0.00    -0.207 F   
BRANCH   9  15
ATOM     15  O1  UNL     1       1.488  -0.030   4.500  1.00  0.00    -0.349 OA  
ATOM     16  C1  UNL     1       1.192   0.460   5.806  1.00  0.00     0.203 C   
ENDBRANCH   9  15
ENDBRANCH   7   8
ENDBRANCH   1   7
BRANCH   3  17
ATOM     17  C11 UNL     1      -1.941  -0.328  -0.071  1.00  0.00     0.117 C   
BRANCH  17  18
ATOM     18  N2  UNL     1      -1.908   0.449  -1.361  1.00  0.00     0.249 N   
ATOM     19  H11 UNL     1      -1.230  -0.030  -1.973  1.00  0.00     0.199 HD  
ATOM     20  H12 UNL     1      -2.804   0.427  -1.853  1.00  0.00     0.199 HD  
BRANCH  18  21
ATOM     21  C12 UNL     1      -1.455   1.863  -1.235  1.00  0.00     0.164 C   
BRANCH  21  22
ATOM     22  C13 UNL     1      -1.343   2.500  -2.591  1.00  0.00    -0.002 A   
ATOM     23  C14 UNL     1      -2.440   3.194  -3.152  1.00  0.00     0.012 A   
ATOM     24  C18 UNL     1      -0.157   2.360  -3.333  1.00  0.00     0.045 A   
ATOM     25  C15 UNL     1      -2.355   3.754  -4.431  1.00  0.00     0.037 A   
ATOM     26  C17 UNL     1      -0.107   2.925  -4.590  1.00  0.00     0.109 A   
ATOM     27  C16 UNL     1      -1.175   3.602  -5.124  1.00  0.00     0.108 A   
ATOM     28  O2  UNL     1       0.958   2.885  -5.433  1.00  0.00    -0.316 OA  
ATOM     29  O3  UNL     1      -0.917   4.076  -6.370  1.00  0.00    -0.316 OA  
ATOM     30  C19 UNL     1       0.448   3.642  -6.554  1.00  0.00     0.337 C   
ENDBRANCH  21  22
ENDBRANCH  18  21
ENDBRANCH  17  18
BRANCH  17  31
ATOM     31  C20 UNL     1      -2.858  -1.571  -0.213  1.00  0.00     0.037 C   
ATOM     32  C21 UNL     1      -4.336  -1.174  -0.315  1.00  0.00     0.014 C   
ATOM     33  C22 UNL     1      -2.488  -2.488  -1.385  1.00  0.00     0.014 C   
ENDBRANCH  17  31
ENDBRANCH   3  17
TORSDOF 8
