REMARK SMILES CC(C)(C)[C@H]([NH2+]Cc1ccc2c(c1)OCO2)c1cn([C@@H](CO)c2c(F)cccc2F)nn1
REMARK SMILES IDX 17 1 18 2 19 3 31 4 32 5 5 7 2 8 1 9 3 10 4 11 6 12 7 15
REMARK SMILES IDX 8 16 9 17 13 18 10 19 12 20 11 21 14 22 16 23 15 24 20 25
REMARK SMILES IDX 21 26 22 27 23 29 24 30 29 31 26 32 28 33 27 34 25 35 30 36
REMARK H PARENT 18 6 6 13 6 14 22 28
ROOT
ATOM     1   C14 UNL     1       0.885  -0.259  -0.600  1.00  0.00     0.127 A   
ATOM     2   C15 UNL     1       0.392   0.716  -1.437  1.00  0.00     0.046 A   
ATOM     3   N2  UNL     1      -0.968   0.624  -1.291  1.00  0.00    -0.202 N   
ATOM     4   N3  UNL     1      -1.287  -0.330  -0.389  1.00  0.00    -0.075 NA  
ATOM     5   N4  UNL     1      -0.161  -0.865   0.050  1.00  0.00    -0.132 NA  
ATOM     6   H20 UNL     1       0.851   1.421  -2.116  1.00  0.00     0.083 HD  
ENDROOT
BRANCH   1   7
ATOM     7   C5  UNL     1       2.289  -0.667  -0.271  1.00  0.00     0.120 C   
BRANCH   7   8
ATOM     8   C2  UNL     1       2.841  -1.843  -1.150  1.00  0.00     0.010 C   
ATOM     9   C1  UNL     1       4.337  -2.086  -0.840  1.00  0.00     0.017 C   
ATOM     10  C3  UNL     1       2.745  -1.478  -2.650  1.00  0.00     0.017 C   
ATOM     11  C4  UNL     1       2.078  -3.165  -0.923  1.00  0.00     0.017 C   
ENDBRANCH   7   8
BRANCH   7  12
ATOM     12  N1  UNL     1       2.345  -1.032   1.194  1.00  0.00     0.250 N   
ATOM     13  H11 UNL     1       3.135  -1.641   1.422  1.00  0.00     0.199 HD  
ATOM     14  H12 UNL     1       1.494  -1.586   1.385  1.00  0.00     0.199 HD  
BRANCH  12  15
ATOM     15  C6  UNL     1       2.333   0.122   2.136  1.00  0.00     0.164 C   
BRANCH  15  16
ATOM     16  C7  UNL     1       2.255  -0.363   3.556  1.00  0.00    -0.002 A   
ATOM     17  C8  UNL     1       0.993  -0.602   4.154  1.00  0.00     0.012 A   
ATOM     18  C12 UNL     1       3.428  -0.639   4.279  1.00  0.00     0.045 A   
ATOM     19  C9  UNL     1       0.898  -1.095   5.459  1.00  0.00     0.037 A   
ATOM     20  C11 UNL     1       3.298  -1.131   5.562  1.00  0.00     0.109 A   
ATOM     21  C10 UNL     1       2.070  -1.351   6.136  1.00  0.00     0.108 A   
ATOM     22  O1  UNL     1       4.325  -1.458   6.390  1.00  0.00    -0.316 OA  
ATOM     23  O2  UNL     1       2.168  -1.837   7.400  1.00  0.00    -0.316 OA  
ATOM     24  C13 UNL     1       3.602  -1.899   7.561  1.00  0.00     0.337 C   
ENDBRANCH  15  16
ENDBRANCH  12  15
ENDBRANCH   7  12
ENDBRANCH   1   7
BRANCH   3  25
ATOM     25  C16 UNL     1      -1.997   1.403  -1.987  1.00  0.00     0.161 C   
BRANCH  25  26
ATOM     26  C17 UNL     1      -2.622   0.565  -3.117  1.00  0.00     0.186 C   
BRANCH  26  27
ATOM     27  O3  UNL     1      -1.683   0.411  -4.189  1.00  0.00    -0.394 OA  
ATOM     28  H24 UNL     1      -2.163  -0.026  -4.920  1.00  0.00     0.210 HD  
ENDBRANCH  26  27
ENDBRANCH  25  26
BRANCH  25  29
ATOM     29  C18 UNL     1      -2.954   2.026  -0.993  1.00  0.00     0.048 A   
ATOM     30  C19 UNL     1      -4.225   1.514  -0.718  1.00  0.00     0.131 A   
ATOM     31  C23 UNL     1      -2.553   3.159  -0.276  1.00  0.00     0.131 A   
ATOM     32  C20 UNL     1      -5.073   2.121   0.209  1.00  0.00     0.040 A   
ATOM     33  C22 UNL     1      -3.386   3.778   0.654  1.00  0.00     0.040 A   
ATOM     34  C21 UNL     1      -4.655   3.258   0.897  1.00  0.00     0.006 A   
ATOM     35  F1  UNL     1      -4.663   0.415  -1.350  1.00  0.00    -0.207 F   
ATOM     36  F2  UNL     1      -1.327   3.665  -0.477  1.00  0.00    -0.207 F   
ENDBRANCH  25  29
ENDBRANCH   3  25
TORSDOF 9
