REMARK SMILES CC(C)(C)[C@H]([NH2+]Cc1ccc2c(c1)OCO2)c1cn([C@H](CO)c2c(F)cccc2F)nn1
REMARK SMILES IDX 17 1 18 2 19 3 31 4 32 5 5 7 2 8 1 9 3 10 4 11 6 12 7 15
REMARK SMILES IDX 8 16 9 17 13 18 10 19 12 20 11 21 14 22 16 23 15 24 20 25
REMARK SMILES IDX 21 26 22 27 23 29 24 30 29 31 26 32 28 33 27 34 25 35 30 36
REMARK H PARENT 18 6 6 13 6 14 22 28
ROOT
ATOM     1   C14 UNL     1       0.191  -0.378   1.249  1.00  0.00     0.127 A   
ATOM     2   C15 UNL     1      -0.574  -0.890   2.271  1.00  0.00     0.046 A   
ATOM     3   N2  UNL     1      -1.219   0.204   2.785  1.00  0.00    -0.202 N   
ATOM     4   N3  UNL     1      -0.895   1.315   2.092  1.00  0.00    -0.075 NA  
ATOM     5   N4  UNL     1      -0.035   0.970   1.149  1.00  0.00    -0.132 NA  
ATOM     6   H20 UNL     1      -0.710  -1.882   2.679  1.00  0.00     0.083 HD  
ENDROOT
BRANCH   1   7
ATOM     7   C5  UNL     1       1.105  -1.041   0.264  1.00  0.00     0.120 C   
BRANCH   7   8
ATOM     8   C2  UNL     1       2.616  -1.034   0.688  1.00  0.00     0.010 C   
ATOM     9   C1  UNL     1       2.786  -1.717   2.065  1.00  0.00     0.017 C   
ATOM     10  C3  UNL     1       3.460  -1.847  -0.324  1.00  0.00     0.017 C   
ATOM     11  C4  UNL     1       3.204   0.389   0.777  1.00  0.00     0.017 C   
ENDBRANCH   7   8
BRANCH   7  12
ATOM     12  N1  UNL     1       0.925  -0.368  -1.079  1.00  0.00     0.250 N   
ATOM     13  H11 UNL     1       1.715  -0.523  -1.709  1.00  0.00     0.199 HD  
ATOM     14  H12 UNL     1       0.900   0.647  -0.895  1.00  0.00     0.199 HD  
BRANCH  12  15
ATOM     15  C6  UNL     1      -0.334  -0.718  -1.794  1.00  0.00     0.164 C   
BRANCH  15  16
ATOM     16  C7  UNL     1      -0.444   0.054  -3.078  1.00  0.00    -0.002 A   
ATOM     17  C8  UNL     1      -0.011  -0.516  -4.299  1.00  0.00     0.012 A   
ATOM     18  C12 UNL     1      -0.943   1.367  -3.063  1.00  0.00     0.045 A   
ATOM     19  C9  UNL     1      -0.084   0.208  -5.494  1.00  0.00     0.037 A   
ATOM     20  C11 UNL     1      -1.001   2.053  -4.259  1.00  0.00     0.109 A   
ATOM     21  C10 UNL     1      -0.584   1.491  -5.440  1.00  0.00     0.108 A   
ATOM     22  O1  UNL     1      -1.459   3.321  -4.420  1.00  0.00    -0.316 OA  
ATOM     23  O2  UNL     1      -0.728   2.334  -6.495  1.00  0.00    -0.316 OA  
ATOM     24  C13 UNL     1      -1.312   3.487  -5.849  1.00  0.00     0.337 C   
ENDBRANCH  15  16
ENDBRANCH  12  15
ENDBRANCH   7  12
ENDBRANCH   1   7
BRANCH   3  25
ATOM     25  C16 UNL     1      -2.120   0.254   3.939  1.00  0.00     0.161 C   
BRANCH  25  26
ATOM     26  C17 UNL     1      -3.495   0.826   3.545  1.00  0.00     0.186 C   
BRANCH  26  27
ATOM     27  O3  UNL     1      -4.205  -0.118   2.734  1.00  0.00    -0.394 OA  
ATOM     28  H24 UNL     1      -5.082   0.274   2.554  1.00  0.00     0.210 HD  
ENDBRANCH  26  27
ENDBRANCH  25  26
BRANCH  25  29
ATOM     29  C18 UNL     1      -1.418   0.923   5.100  1.00  0.00     0.048 A   
ATOM     30  C19 UNL     1      -0.518   0.178   5.874  1.00  0.00     0.131 A   
ATOM     31  C23 UNL     1      -1.577   2.271   5.425  1.00  0.00     0.131 A   
ATOM     32  C20 UNL     1       0.178   0.742   6.942  1.00  0.00     0.040 A   
ATOM     33  C22 UNL     1      -0.886   2.854   6.488  1.00  0.00     0.040 A   
ATOM     34  C21 UNL     1      -0.007   2.087   7.252  1.00  0.00     0.006 A   
ATOM     35  F1  UNL     1      -0.309  -1.112   5.581  1.00  0.00    -0.207 F   
ATOM     36  F2  UNL     1      -2.408   3.042   4.711  1.00  0.00    -0.207 F   
ENDBRANCH  25  29
ENDBRANCH   3  25
TORSDOF 9
