REMARK SMILES CC(C)[C@H]([NH2+]Cc1ccc2c(c1)OCO2)c1cn(Cc2cn[nH]c2)nn1
REMARK SMILES IDX 16 1 17 2 18 3 25 4 26 5 4 7 2 8 1 9 3 10 5 11 6 14 7 15
REMARK SMILES IDX 8 16 12 17 9 18 11 19 10 20 13 21 15 22 14 23 19 24 20 25
REMARK SMILES IDX 21 26 24 27 22 28 23 29
REMARK H PARENT 17 6 5 12 5 13 23 30
ROOT
ATOM     1   C13 UNL     1       1.362  -1.617   1.833  1.00  0.00     0.127 A   
ATOM     2   C14 UNL     1       2.331  -2.554   2.113  1.00  0.00     0.046 A   
ATOM     3   N2  UNL     1       1.627  -3.717   2.282  1.00  0.00    -0.208 N   
ATOM     4   N5  UNL     1       0.306  -3.504   2.127  1.00  0.00    -0.076 NA  
ATOM     5   N6  UNL     1       0.131  -2.222   1.858  1.00  0.00    -0.132 NA  
ATOM     6   H18 UNL     1       3.409  -2.517   2.181  1.00  0.00     0.083 HD  
ENDROOT
BRANCH   1   7
ATOM     7   C4  UNL     1       1.461  -0.164   1.486  1.00  0.00     0.117 C   
BRANCH   7   8
ATOM     8   C2  UNL     1       1.585   0.732   2.746  1.00  0.00     0.037 C   
ATOM     9   C1  UNL     1       2.009   2.161   2.384  1.00  0.00     0.014 C   
ATOM     10  C3  UNL     1       0.319   0.772   3.610  1.00  0.00     0.014 C   
ENDBRANCH   7   8
BRANCH   7  11
ATOM     11  N1  UNL     1       0.275   0.256   0.660  1.00  0.00     0.249 N   
ATOM     12  H9  UNL     1       0.128   1.269   0.677  1.00  0.00     0.199 HD  
ATOM     13  H10 UNL     1      -0.557  -0.165   1.101  1.00  0.00     0.199 HD  
BRANCH  11  14
ATOM     14  C5  UNL     1       0.292  -0.205  -0.757  1.00  0.00     0.164 C   
BRANCH  14  15
ATOM     15  C6  UNL     1      -0.977   0.199  -1.451  1.00  0.00    -0.002 A   
ATOM     16  C7  UNL     1      -2.119  -0.635  -1.383  1.00  0.00     0.012 A   
ATOM     17  C11 UNL     1      -1.058   1.432  -2.120  1.00  0.00     0.045 A   
ATOM     18  C8  UNL     1      -3.324  -0.253  -1.984  1.00  0.00     0.037 A   
ATOM     19  C10 UNL     1      -2.261   1.778  -2.700  1.00  0.00     0.109 A   
ATOM     20  C9  UNL     1      -3.362   0.960  -2.634  1.00  0.00     0.108 A   
ATOM     21  O1  UNL     1      -2.509   2.929  -3.379  1.00  0.00    -0.316 OA  
ATOM     22  O2  UNL     1      -4.441   1.491  -3.266  1.00  0.00    -0.316 OA  
ATOM     23  C12 UNL     1      -3.889   2.731  -3.760  1.00  0.00     0.337 C   
ENDBRANCH  14  15
ENDBRANCH  11  14
ENDBRANCH   7  11
ENDBRANCH   1   7
BRANCH   3  24
ATOM     24  C15 UNL     1       2.141  -5.053   2.543  1.00  0.00     0.172 C   
BRANCH  24  25
ATOM     25  C16 UNL     1       2.766  -5.617   1.318  1.00  0.00     0.007 A   
ATOM     26  C17 UNL     1       2.150  -5.844   0.064  1.00  0.00     0.137 A   
ATOM     27  C18 UNL     1       4.064  -6.050   1.132  1.00  0.00     0.099 A   
ATOM     28  N3  UNL     1       2.998  -6.332  -0.840  1.00  0.00    -0.193 NA  
ATOM     29  N4  UNL     1       4.145  -6.488  -0.161  1.00  0.00    -0.246 N   
ATOM     30  H22 UNL     1       4.942  -6.893  -0.643  1.00  0.00     0.175 HD  
ENDBRANCH  24  25
ENDBRANCH   3  24
TORSDOF 7
