REMARK SMILES COc1ccc(Cn2cc([C@@H]([NH2+]Cc3ccc4c(c3)OCO4)C(C)(C)C)nn2)cc1
REMARK SMILES IDX 8 1 9 2 10 3 27 4 28 5 7 7 6 8 3 9 4 10 30 11 5 12 29 13
REMARK SMILES IDX 2 14 1 15 11 16 12 17 13 20 14 21 15 22 19 23 16 24 18 25
REMARK SMILES IDX 17 26 20 27 22 28 21 29 23 30 24 31 25 32 26 33
REMARK H PARENT 9 6 12 18 12 19
ROOT
ATOM     1   N1  UNL     1       1.251   0.623   1.629  1.00  0.00    -0.208 N   
ATOM     2   C7  UNL     1       1.361   1.113   0.356  1.00  0.00     0.046 A   
ATOM     3   C8  UNL     1       0.726   2.334   0.414  1.00  0.00     0.127 A   
ATOM     4   N3  UNL     1       0.254   2.535   1.688  1.00  0.00    -0.132 NA  
ATOM     5   N4  UNL     1       0.587   1.487   2.421  1.00  0.00    -0.076 NA  
ATOM     6   H8  UNL     1       1.844   0.561  -0.437  1.00  0.00     0.083 HD  
ENDROOT
BRANCH   1   7
ATOM     7   C6  UNL     1       1.776  -0.623   2.161  1.00  0.00     0.169 C   
BRANCH   7   8
ATOM     8   C5  UNL     1       0.969  -1.802   1.685  1.00  0.00    -0.028 A   
ATOM     9   C2  UNL     1      -0.565  -3.987   0.786  1.00  0.00     0.075 A   
ATOM     10  C3  UNL     1      -1.034  -3.180   1.822  1.00  0.00     0.034 A   
ATOM     11  C23 UNL     1       0.670  -3.698   0.202  1.00  0.00     0.034 A   
ATOM     12  C4  UNL     1      -0.273  -2.094   2.267  1.00  0.00     0.008 A   
ATOM     13  C22 UNL     1       1.434  -2.616   0.645  1.00  0.00     0.008 A   
BRANCH   9  14
ATOM     14  O1  UNL     1      -1.215  -5.062   0.246  1.00  0.00    -0.349 OA  
ATOM     15  C1  UNL     1      -2.422  -5.467   0.880  1.00  0.00     0.203 C   
ENDBRANCH   9  14
ENDBRANCH   7   8
ENDBRANCH   1   7
BRANCH   3  16
ATOM     16  C9  UNL     1       0.427   3.355  -0.642  1.00  0.00     0.120 C   
BRANCH  16  17
ATOM     17  N2  UNL     1      -0.931   3.963  -0.333  1.00  0.00     0.250 N   
ATOM     18  H10 UNL     1      -0.905   4.984  -0.372  1.00  0.00     0.199 HD  
ATOM     19  H11 UNL     1      -1.116   3.741   0.659  1.00  0.00     0.199 HD  
BRANCH  17  20
ATOM     20  C10 UNL     1      -2.078   3.469  -1.143  1.00  0.00     0.164 C   
BRANCH  20  21
ATOM     21  C11 UNL     1      -2.364   2.004  -0.975  1.00  0.00    -0.002 A   
ATOM     22  C12 UNL     1      -2.895   1.510   0.242  1.00  0.00     0.012 A   
ATOM     23  C16 UNL     1      -2.095   1.107  -2.023  1.00  0.00     0.045 A   
ATOM     24  C13 UNL     1      -3.160   0.147   0.411  1.00  0.00     0.037 A   
ATOM     25  C15 UNL     1      -2.366  -0.231  -1.822  1.00  0.00     0.109 A   
ATOM     26  C14 UNL     1      -2.888  -0.697  -0.641  1.00  0.00     0.108 A   
ATOM     27  O2  UNL     1      -2.166  -1.222  -2.730  1.00  0.00    -0.316 OA  
ATOM     28  O3  UNL     1      -3.099  -2.038  -0.662  1.00  0.00    -0.316 OA  
ATOM     29  C17 UNL     1      -2.628  -2.372  -1.985  1.00  0.00     0.337 C   
ENDBRANCH  20  21
ENDBRANCH  17  20
ENDBRANCH  16  17
BRANCH  16  30
ATOM     30  C18 UNL     1       1.514   4.477  -0.782  1.00  0.00     0.010 C   
ATOM     31  C19 UNL     1       2.885   3.847  -1.118  1.00  0.00     0.017 C   
ATOM     32  C20 UNL     1       1.154   5.422  -1.952  1.00  0.00     0.017 C   
ATOM     33  C21 UNL     1       1.673   5.320   0.499  1.00  0.00     0.017 C   
ENDBRANCH  16  30
ENDBRANCH   3  16
TORSDOF 8
