REMARK SMILES CC(C)[C@H]([NH2+]Cc1ccc2c(c1)OCO2)c1cn([C@@H](CO)c2ccccc2Cl)nn1
REMARK SMILES IDX 16 1 17 2 18 3 29 4 30 5 4 7 2 8 1 9 3 10 5 11 6 14 7 15
REMARK SMILES IDX 8 16 12 17 9 18 11 19 10 20 13 21 15 22 14 23 19 24 20 25
REMARK SMILES IDX 21 26 22 28 23 29 27 30 24 31 26 32 25 33 28 34
REMARK H PARENT 17 6 5 12 5 13 21 27
ROOT
ATOM     1   C13 UNL     1      -0.612  -1.196   1.239  1.00  0.00     0.127 A   
ATOM     2   C14 UNL     1      -0.876  -2.498   0.882  1.00  0.00     0.046 A   
ATOM     3   N2  UNL     1      -1.670  -2.388  -0.233  1.00  0.00    -0.202 N   
ATOM     4   N3  UNL     1      -1.925  -1.091  -0.499  1.00  0.00    -0.075 NA  
ATOM     5   N4  UNL     1      -1.275  -0.354   0.384  1.00  0.00    -0.132 NA  
ATOM     6   H18 UNL     1      -0.555  -3.456   1.269  1.00  0.00     0.083 HD  
ENDROOT
BRANCH   1   7
ATOM     7   C4  UNL     1       0.291  -0.617   2.279  1.00  0.00     0.117 C   
BRANCH   7   8
ATOM     8   C2  UNL     1      -0.399  -0.329   3.637  1.00  0.00     0.037 C   
ATOM     9   C1  UNL     1      -1.564   0.664   3.554  1.00  0.00     0.014 C   
ATOM     10  C3  UNL     1      -0.867  -1.621   4.316  1.00  0.00     0.014 C   
ENDBRANCH   7   8
BRANCH   7  11
ATOM     11  N1  UNL     1       0.896   0.666   1.766  1.00  0.00     0.249 N   
ATOM     12  H9  UNL     1       1.273   1.240   2.527  1.00  0.00     0.199 HD  
ATOM     13  H10 UNL     1       0.126   1.208   1.345  1.00  0.00     0.199 HD  
BRANCH  11  14
ATOM     14  C5  UNL     1       1.935   0.503   0.710  1.00  0.00     0.164 C   
BRANCH  14  15
ATOM     15  C6  UNL     1       2.382   1.846   0.205  1.00  0.00    -0.002 A   
ATOM     16  C7  UNL     1       3.523   2.478   0.753  1.00  0.00     0.012 A   
ATOM     17  C11 UNL     1       1.630   2.506  -0.782  1.00  0.00     0.045 A   
ATOM     18  C8  UNL     1       3.916   3.749   0.319  1.00  0.00     0.037 A   
ATOM     19  C10 UNL     1       2.045   3.757  -1.187  1.00  0.00     0.109 A   
ATOM     20  C9  UNL     1       3.155   4.362  -0.652  1.00  0.00     0.108 A   
ATOM     21  O1  UNL     1       1.436   4.526  -2.127  1.00  0.00    -0.316 OA  
ATOM     22  O2  UNL     1       3.386   5.589  -1.189  1.00  0.00    -0.316 OA  
ATOM     23  C12 UNL     1       2.309   5.678  -2.146  1.00  0.00     0.337 C   
ENDBRANCH  14  15
ENDBRANCH  11  14
ENDBRANCH   7  11
ENDBRANCH   1   7
BRANCH   3  24
ATOM     24  C15 UNL     1      -2.210  -3.467  -1.062  1.00  0.00     0.157 C   
BRANCH  24  25
ATOM     25  C16 UNL     1      -3.039  -2.992  -2.273  1.00  0.00     0.186 C   
BRANCH  25  26
ATOM     26  O3  UNL     1      -3.817  -4.076  -2.789  1.00  0.00    -0.394 OA  
ATOM     27  H22 UNL     1      -4.267  -3.756  -3.592  1.00  0.00     0.210 HD  
ENDBRANCH  25  26
ENDBRANCH  24  25
BRANCH  24  28
ATOM     28  C17 UNL     1      -1.124  -4.468  -1.466  1.00  0.00    -0.005 A   
ATOM     29  C18 UNL     1      -1.346  -5.829  -1.168  1.00  0.00     0.007 A   
ATOM     30  C22 UNL     1       0.067  -4.128  -2.134  1.00  0.00     0.046 A   
ATOM     31  C19 UNL     1      -0.409  -6.808  -1.505  1.00  0.00     0.000 A   
ATOM     32  C21 UNL     1       1.003  -5.115  -2.470  1.00  0.00     0.021 A   
ATOM     33  C20 UNL     1       0.767  -6.450  -2.153  1.00  0.00     0.002 A   
ATOM     34  CL1 UNL     1       0.469  -2.504  -2.568  1.00  0.00    -0.084 Cl  
ENDBRANCH  24  28
ENDBRANCH   3  24
TORSDOF 9
