REMARK SMILES CC(C)[C@H]([NH2+]Cc1ccc2c(c1)OCO2)c1cn([C@H](CO)c2ccccc2Cl)nn1
REMARK SMILES IDX 16 1 17 2 18 3 29 4 30 5 4 7 2 8 1 9 3 10 5 11 6 14 7 15
REMARK SMILES IDX 8 16 12 17 9 18 11 19 10 20 13 21 15 22 14 23 19 24 20 25
REMARK SMILES IDX 21 26 22 28 23 29 27 30 24 31 26 32 25 33 28 34
REMARK H PARENT 17 6 5 12 5 13 21 27
ROOT
ATOM     1   C13 UNL     1      -0.338   1.280   1.072  1.00  0.00     0.127 A   
ATOM     2   C14 UNL     1       0.746   2.116   1.217  1.00  0.00     0.046 A   
ATOM     3   N2  UNL     1       1.770   1.446   0.602  1.00  0.00    -0.202 N   
ATOM     4   N3  UNL     1       1.325   0.291   0.061  1.00  0.00    -0.075 NA  
ATOM     5   N4  UNL     1       0.040   0.175   0.353  1.00  0.00    -0.132 NA  
ATOM     6   H18 UNL     1       0.889   3.078   1.690  1.00  0.00     0.083 HD  
ENDROOT
BRANCH   1   7
ATOM     7   C4  UNL     1      -1.760   1.427   1.502  1.00  0.00     0.117 C   
BRANCH   7   8
ATOM     8   C2  UNL     1      -2.054   0.876   2.922  1.00  0.00     0.037 C   
ATOM     9   C1  UNL     1      -1.746  -0.616   3.093  1.00  0.00     0.014 C   
ATOM     10  C3  UNL     1      -1.326   1.681   4.004  1.00  0.00     0.014 C   
ENDBRANCH   7   8
BRANCH   7  11
ATOM     11  N1  UNL     1      -2.666   0.723   0.521  1.00  0.00     0.249 N   
ATOM     12  H9  UNL     1      -2.231  -0.191   0.323  1.00  0.00     0.199 HD  
ATOM     13  H10 UNL     1      -3.585   0.526   0.929  1.00  0.00     0.199 HD  
BRANCH  11  14
ATOM     14  C5  UNL     1      -2.845   1.414  -0.786  1.00  0.00     0.164 C   
BRANCH  14  15
ATOM     15  C6  UNL     1      -3.701   0.586  -1.702  1.00  0.00    -0.002 A   
ATOM     16  C7  UNL     1      -5.095   0.811  -1.782  1.00  0.00     0.012 A   
ATOM     17  C11 UNL     1      -3.123  -0.456  -2.448  1.00  0.00     0.045 A   
ATOM     18  C8  UNL     1      -5.905   0.016  -2.601  1.00  0.00     0.037 A   
ATOM     19  C10 UNL     1      -3.949  -1.221  -3.244  1.00  0.00     0.109 A   
ATOM     20  C9  UNL     1      -5.301  -0.992  -3.319  1.00  0.00     0.108 A   
ATOM     21  O1  UNL     1      -3.555  -2.262  -4.024  1.00  0.00    -0.316 OA  
ATOM     22  O2  UNL     1      -5.928  -1.858  -4.156  1.00  0.00    -0.316 OA  
ATOM     23  C12 UNL     1      -4.814  -2.652  -4.618  1.00  0.00     0.337 C   
ENDBRANCH  14  15
ENDBRANCH  11  14
ENDBRANCH   7  11
ENDBRANCH   1   7
BRANCH   3  24
ATOM     24  C15 UNL     1       3.170   1.859   0.484  1.00  0.00     0.157 C   
BRANCH  24  25
ATOM     25  C16 UNL     1       3.550   2.086  -0.992  1.00  0.00     0.186 C   
BRANCH  25  26
ATOM     26  O3  UNL     1       2.884   3.247  -1.501  1.00  0.00    -0.394 OA  
ATOM     27  H22 UNL     1       3.225   3.397  -2.403  1.00  0.00     0.210 HD  
ENDBRANCH  25  26
ENDBRANCH  24  25
BRANCH  24  28
ATOM     28  C17 UNL     1       4.066   0.893   1.252  1.00  0.00    -0.005 A   
ATOM     29  C18 UNL     1       4.678  -0.197   0.601  1.00  0.00     0.007 A   
ATOM     30  C22 UNL     1       4.280   1.030   2.638  1.00  0.00     0.046 A   
ATOM     31  C19 UNL     1       5.495  -1.091   1.297  1.00  0.00     0.000 A   
ATOM     32  C21 UNL     1       5.101   0.133   3.332  1.00  0.00     0.021 A   
ATOM     33  C20 UNL     1       5.711  -0.923   2.660  1.00  0.00     0.002 A   
ATOM     34  CL1 UNL     1       3.539   2.288   3.566  1.00  0.00    -0.084 Cl  
ENDBRANCH  24  28
ENDBRANCH   3  24
TORSDOF 9
