REMARK SMILES CC(C)(C)[C@H]([NH2+]Cc1ccc2c(c1)OCO2)c1cn(Cc2ncccn2)nn1
REMARK SMILES IDX 5 1 2 2 1 3 3 4 4 5 6 6 7 9 8 10 9 11 13 12 10 13 12 14
REMARK SMILES IDX 11 15 14 16 16 17 15 18 17 19 18 20 28 21 19 22 27 23 20 25
REMARK SMILES IDX 21 26 22 27 26 28 23 29 25 30 24 31
REMARK H PARENT 6 7 6 8 18 24
ROOT
ATOM     1   C5  UNL     1      -0.956  -1.052   0.027  1.00  0.00     0.120 C   
ENDROOT
BRANCH   1   2
ATOM     2   C2  UNL     1      -2.407  -1.423  -0.442  1.00  0.00     0.010 C   
ATOM     3   C1  UNL     1      -2.359  -2.200  -1.778  1.00  0.00     0.017 C   
ATOM     4   C3  UNL     1      -3.222  -0.135  -0.699  1.00  0.00     0.017 C   
ATOM     5   C4  UNL     1      -3.173  -2.282   0.584  1.00  0.00     0.017 C   
ENDBRANCH   1   2
BRANCH   1   6
ATOM     6   N1  UNL     1      -0.137  -2.310   0.263  1.00  0.00     0.250 N   
ATOM     7   H11 UNL     1      -0.539  -2.766   1.093  1.00  0.00     0.199 HD  
ATOM     8   H12 UNL     1      -0.230  -2.955  -0.523  1.00  0.00     0.199 HD  
BRANCH   6   9
ATOM     9   C6  UNL     1       1.320  -2.118   0.553  1.00  0.00     0.164 C   
BRANCH   9  10
ATOM     10  C7  UNL     1       2.066  -1.408  -0.543  1.00  0.00    -0.002 A   
ATOM     11  C8  UNL     1       2.304  -2.047  -1.783  1.00  0.00     0.012 A   
ATOM     12  C12 UNL     1       2.511  -0.088  -0.347  1.00  0.00     0.045 A   
ATOM     13  C9  UNL     1       2.969  -1.380  -2.817  1.00  0.00     0.037 A   
ATOM     14  C11 UNL     1       3.164   0.540  -1.386  1.00  0.00     0.109 A   
ATOM     15  C10 UNL     1       3.385  -0.086  -2.587  1.00  0.00     0.108 A   
ATOM     16  O1  UNL     1       3.654   1.808  -1.364  1.00  0.00    -0.316 OA  
ATOM     17  O2  UNL     1       4.039   0.707  -3.474  1.00  0.00    -0.316 OA  
ATOM     18  C13 UNL     1       4.226   1.903  -2.689  1.00  0.00     0.337 C   
ENDBRANCH   9  10
ENDBRANCH   6   9
ENDBRANCH   1   6
BRANCH   1  19
ATOM     19  C14 UNL     1      -0.907  -0.192   1.250  1.00  0.00     0.127 A   
ATOM     20  C15 UNL     1      -0.705   1.163   1.385  1.00  0.00     0.046 A   
ATOM     21  N6  UNL     1      -0.940  -0.767   2.494  1.00  0.00    -0.132 NA  
ATOM     22  N2  UNL     1      -0.568   1.347   2.734  1.00  0.00    -0.204 N   
ATOM     23  N5  UNL     1      -0.738   0.183   3.393  1.00  0.00    -0.076 NA  
ATOM     24  H20 UNL     1      -0.582   1.973   0.678  1.00  0.00     0.083 HD  
BRANCH  22  25
ATOM     25  C16 UNL     1      -0.259   2.572   3.444  1.00  0.00     0.211 C   
BRANCH  25  26
ATOM     26  C17 UNL     1       1.212   2.866   3.344  1.00  0.00     0.147 A   
ATOM     27  N3  UNL     1       1.727   3.119   2.120  1.00  0.00    -0.240 NA  
ATOM     28  N4  UNL     1       1.930   2.880   4.484  1.00  0.00    -0.240 NA  
ATOM     29  C18 UNL     1       3.043   3.411   2.067  1.00  0.00     0.115 A   
ATOM     30  C20 UNL     1       3.240   3.176   4.372  1.00  0.00     0.115 A   
ATOM     31  C19 UNL     1       3.855   3.453   3.174  1.00  0.00     0.040 A   
ENDBRANCH  25  26
ENDBRANCH  22  25
ENDBRANCH   1  19
TORSDOF 7
