REMARK SMILES Cc1ccc2c(c1)C[C@@H](Cn1cc([C@H](CC(C)C)[NH2+]Cc3ccc4c(c3)OCO4)nn1)O2
REMARK SMILES IDX 11 1 12 2 13 3 30 4 31 5 10 7 9 8 2 9 3 10 7 11 4 12 6 13
REMARK SMILES IDX 5 14 8 15 32 16 1 17 14 18 15 19 16 20 17 21 18 22 19 23
REMARK SMILES IDX 20 26 21 27 22 28 26 29 23 30 25 31 24 32 27 33 29 34 28 35
REMARK H PARENT 12 6 19 24 19 25
ROOT
ATOM     1   N1  UNL     1      -0.411  -2.877  -1.956  1.00  0.00    -0.210 N   
ATOM     2   C11 UNL     1       0.541  -1.901  -2.039  1.00  0.00     0.045 A   
ATOM     3   C12 UNL     1      -0.175  -0.752  -2.295  1.00  0.00     0.127 A   
ATOM     4   N3  UNL     1      -1.506  -1.075  -2.397  1.00  0.00    -0.132 NA  
ATOM     5   N4  UNL     1      -1.635  -2.376  -2.193  1.00  0.00    -0.076 NA  
ATOM     6   H12 UNL     1       1.586  -2.106  -1.852  1.00  0.00     0.083 HD  
ENDROOT
BRANCH   1   7
ATOM     7   C10 UNL     1      -0.232  -4.272  -1.613  1.00  0.00     0.166 C   
BRANCH   7   8
ATOM     8   C9  UNL     1      -0.122  -4.528  -0.104  1.00  0.00     0.149 C   
ATOM     9   C2  UNL     1      -0.644  -1.235   3.123  1.00  0.00    -0.051 A   
ATOM     10  C3  UNL     1       0.751  -1.187   2.920  1.00  0.00     0.006 A   
ATOM     11  C7  UNL     1      -1.419  -2.168   2.417  1.00  0.00     0.010 A   
ATOM     12  C4  UNL     1       1.371  -2.047   2.008  1.00  0.00     0.034 A   
ATOM     13  C6  UNL     1      -0.787  -3.011   1.517  1.00  0.00    -0.015 A   
ATOM     14  C5  UNL     1       0.580  -2.947   1.324  1.00  0.00     0.079 A   
ATOM     15  C8  UNL     1      -1.358  -4.117   0.716  1.00  0.00     0.072 C   
ATOM     16  O3  UNL     1       1.060  -3.856   0.420  1.00  0.00    -0.341 OA  
ATOM     17  C1  UNL     1      -1.285  -0.359   4.165  1.00  0.00     0.044 C   
ENDBRANCH   7   8
ENDBRANCH   1   7
BRANCH   3  18
ATOM     18  C13 UNL     1       0.208   0.691  -2.327  1.00  0.00     0.114 C   
BRANCH  18  19
ATOM     19  C14 UNL     1       1.702   1.015  -2.137  1.00  0.00     0.064 C   
BRANCH  19  20
ATOM     20  C15 UNL     1       2.508   1.113  -3.453  1.00  0.00    -0.012 C   
ATOM     21  C16 UNL     1       2.525  -0.180  -4.266  1.00  0.00     0.007 C   
ATOM     22  C17 UNL     1       3.945   1.541  -3.141  1.00  0.00     0.007 C   
ENDBRANCH  19  20
ENDBRANCH  18  19
BRANCH  18  23
ATOM     23  N2  UNL     1      -0.590   1.436  -1.278  1.00  0.00     0.249 N   
ATOM     24  H23 UNL     1      -1.580   1.327  -1.537  1.00  0.00     0.199 HD  
ATOM     25  H24 UNL     1      -0.395   2.442  -1.320  1.00  0.00     0.199 HD  
BRANCH  23  26
ATOM     26  C18 UNL     1      -0.466   0.953   0.130  1.00  0.00     0.164 C   
BRANCH  26  27
ATOM     27  C19 UNL     1      -1.138   1.911   1.073  1.00  0.00    -0.002 A   
ATOM     28  C20 UNL     1      -2.530   1.818   1.315  1.00  0.00     0.012 A   
ATOM     29  C24 UNL     1      -0.392   2.929   1.691  1.00  0.00     0.045 A   
ATOM     30  C21 UNL     1      -3.171   2.721   2.170  1.00  0.00     0.037 A   
ATOM     31  C23 UNL     1      -1.054   3.799   2.532  1.00  0.00     0.109 A   
ATOM     32  C22 UNL     1      -2.404   3.700   2.763  1.00  0.00     0.108 A   
ATOM     33  O1  UNL     1      -0.483   4.826   3.214  1.00  0.00    -0.316 OA  
ATOM     34  O2  UNL     1      -2.853   4.654   3.620  1.00  0.00    -0.316 OA  
ATOM     35  C25 UNL     1      -1.625   5.343   3.936  1.00  0.00     0.337 C   
ENDBRANCH  26  27
ENDBRANCH  23  26
ENDBRANCH  18  23
ENDBRANCH   3  18
TORSDOF 8
