REMARK SMILES Cc1ccc2c(c1)C[C@H](Cn1cc([C@H](CC(C)C)[NH2+]Cc3ccc4c(c3)OCO4)nn1)O2
REMARK SMILES IDX 11 1 12 2 13 3 30 4 31 5 10 7 9 8 2 9 3 10 7 11 4 12 6 13
REMARK SMILES IDX 5 14 8 15 32 16 1 17 14 18 15 19 16 20 17 21 18 22 19 23
REMARK SMILES IDX 20 26 21 27 22 28 26 29 23 30 25 31 24 32 27 33 29 34 28 35
REMARK H PARENT 12 6 19 24 19 25
ROOT
ATOM     1   N1  UNL     1       3.042   1.318  -1.472  1.00  0.00    -0.210 N   
ATOM     2   C11 UNL     1       2.454   0.148  -1.858  1.00  0.00     0.045 A   
ATOM     3   C12 UNL     1       1.113   0.449  -1.886  1.00  0.00     0.127 A   
ATOM     4   N3  UNL     1       0.941   1.776  -1.587  1.00  0.00    -0.132 NA  
ATOM     5   N4  UNL     1       2.131   2.299  -1.343  1.00  0.00    -0.076 NA  
ATOM     6   H12 UNL     1       3.018  -0.763  -2.002  1.00  0.00     0.083 HD  
ENDROOT
BRANCH   1   7
ATOM     7   C10 UNL     1       4.434   1.551  -1.150  1.00  0.00     0.166 C   
BRANCH   7   8
ATOM     8   C9  UNL     1       4.809   1.143   0.281  1.00  0.00     0.149 C   
ATOM     9   C2  UNL     1       1.679  -0.436   3.318  1.00  0.00    -0.051 A   
ATOM     10  C3  UNL     1       2.126  -1.645   2.744  1.00  0.00     0.006 A   
ATOM     11  C7  UNL     1       2.252   0.780   2.913  1.00  0.00     0.010 A   
ATOM     12  C4  UNL     1       3.115  -1.646   1.759  1.00  0.00     0.034 A   
ATOM     13  C6  UNL     1       3.233   0.758   1.936  1.00  0.00    -0.015 A   
ATOM     14  C5  UNL     1       3.651  -0.434   1.377  1.00  0.00     0.079 A   
ATOM     15  C8  UNL     1       4.035   1.877   1.393  1.00  0.00     0.072 C   
ATOM     16  O3  UNL     1       4.636  -0.296   0.437  1.00  0.00    -0.341 OA  
ATOM     17  C1  UNL     1       0.663  -0.461   4.426  1.00  0.00     0.044 C   
ENDBRANCH   7   8
ENDBRANCH   1   7
BRANCH   3  18
ATOM     18  C13 UNL     1      -0.069  -0.436  -2.072  1.00  0.00     0.114 C   
BRANCH  18  19
ATOM     19  C14 UNL     1      -0.795  -0.192  -3.408  1.00  0.00     0.064 C   
BRANCH  19  20
ATOM     20  C15 UNL     1       0.048  -0.473  -4.670  1.00  0.00    -0.012 C   
ATOM     21  C16 UNL     1      -0.751  -0.097  -5.923  1.00  0.00     0.007 C   
ATOM     22  C17 UNL     1       0.485  -1.935  -4.762  1.00  0.00     0.007 C   
ENDBRANCH  19  20
ENDBRANCH  18  19
BRANCH  18  23
ATOM     23  N2  UNL     1      -1.084  -0.208  -0.977  1.00  0.00     0.249 N   
ATOM     24  H23 UNL     1      -1.422   0.760  -1.057  1.00  0.00     0.199 HD  
ATOM     25  H24 UNL     1      -1.893  -0.820  -1.114  1.00  0.00     0.199 HD  
BRANCH  23  26
ATOM     26  C18 UNL     1      -0.574  -0.389   0.413  1.00  0.00     0.164 C   
BRANCH  26  27
ATOM     27  C19 UNL     1      -1.716  -0.454   1.390  1.00  0.00    -0.002 A   
ATOM     28  C20 UNL     1      -2.378   0.731   1.794  1.00  0.00     0.012 A   
ATOM     29  C24 UNL     1      -2.157  -1.696   1.875  1.00  0.00     0.045 A   
ATOM     30  C21 UNL     1      -3.462   0.684   2.675  1.00  0.00     0.037 A   
ATOM     31  C23 UNL     1      -3.227  -1.710   2.745  1.00  0.00     0.109 A   
ATOM     32  C22 UNL     1      -3.862  -0.555   3.132  1.00  0.00     0.108 A   
ATOM     33  O1  UNL     1      -3.775  -2.819   3.306  1.00  0.00    -0.316 OA  
ATOM     34  O2  UNL     1      -4.888  -0.791   3.987  1.00  0.00    -0.316 OA  
ATOM     35  C25 UNL     1      -4.823  -2.227   4.109  1.00  0.00     0.337 C   
ENDBRANCH  26  27
ENDBRANCH  23  26
ENDBRANCH  18  23
ENDBRANCH   3  18
TORSDOF 8
