REMARK SMILES COc1cc(OC)cc(-n2cc([C@H](CC(C)C)[NH2+]Cc3ccc4c(c3)OCO4)nn2)c1
REMARK SMILES IDX 10 1 11 2 12 3 29 4 30 5 9 6 3 7 4 8 31 9 5 10 8 11 2 12
REMARK SMILES IDX 1 13 6 14 7 15 13 16 14 17 15 18 16 19 17 20 18 21 19 24
REMARK SMILES IDX 20 25 21 26 25 27 22 28 24 29 23 30 26 31 28 32 27 33
REMARK H PARENT 18 22 18 23
ROOT
ATOM     1   N1  UNL     1      -0.207  -0.673   0.181  1.00  0.00    -0.180 N   
ATOM     2   C8  UNL     1      -0.261   0.458   0.972  1.00  0.00     0.135 A   
ATOM     3   C9  UNL     1      -0.162  -0.008   2.264  1.00  0.00     0.127 A   
ATOM     4   N3  UNL     1       0.009  -1.363   2.241  1.00  0.00    -0.131 NA  
ATOM     5   N4  UNL     1      -0.001  -1.755   0.979  1.00  0.00    -0.071 NA  
ENDROOT
BRANCH   1   6
ATOM     6   C7  UNL     1      -0.376  -0.790  -1.218  1.00  0.00     0.063 A   
ATOM     7   C2  UNL     1      -0.463  -2.186  -3.204  1.00  0.00     0.079 A   
ATOM     8   C3  UNL     1      -0.761  -1.064  -3.982  1.00  0.00     0.067 A   
ATOM     9   C23 UNL     1      -0.282  -2.049  -1.825  1.00  0.00     0.059 A   
ATOM     10  C4  UNL     1      -0.851   0.196  -3.385  1.00  0.00     0.079 A   
ATOM     11  C6  UNL     1      -0.655   0.331  -2.006  1.00  0.00     0.059 A   
BRANCH   7  12
ATOM     12  O1  UNL     1      -0.344  -3.469  -3.665  1.00  0.00    -0.349 OA  
ATOM     13  C1  UNL     1      -0.241  -3.643  -5.074  1.00  0.00     0.203 C   
ENDBRANCH   7  12
BRANCH  10  14
ATOM     14  O2  UNL     1      -1.137   1.370  -4.027  1.00  0.00    -0.349 OA  
ATOM     15  C5  UNL     1      -1.235   1.324  -5.450  1.00  0.00     0.203 C   
ENDBRANCH  10  14
ENDBRANCH   1   6
BRANCH   3  16
ATOM     16  C10 UNL     1      -0.313   0.682   3.578  1.00  0.00     0.114 C   
BRANCH  16  17
ATOM     17  C11 UNL     1       1.023   0.787   4.339  1.00  0.00     0.064 C   
BRANCH  17  18
ATOM     18  C12 UNL     1       2.100   1.645   3.640  1.00  0.00    -0.012 C   
ATOM     19  C13 UNL     1       1.671   3.104   3.489  1.00  0.00     0.007 C   
ATOM     20  C14 UNL     1       3.410   1.570   4.429  1.00  0.00     0.007 C   
ENDBRANCH  17  18
ENDBRANCH  16  17
BRANCH  16  21
ATOM     21  N2  UNL     1      -1.272  -0.118   4.448  1.00  0.00     0.249 N   
ATOM     22  H20 UNL     1      -1.140  -1.106   4.179  1.00  0.00     0.199 HD  
ATOM     23  H21 UNL     1      -0.997  -0.057   5.434  1.00  0.00     0.199 HD  
BRANCH  21  24
ATOM     24  C15 UNL     1      -2.724   0.218   4.329  1.00  0.00     0.164 C   
BRANCH  24  25
ATOM     25  C16 UNL     1      -3.285   0.040   2.944  1.00  0.00    -0.002 A   
ATOM     26  C17 UNL     1      -3.499  -1.258   2.419  1.00  0.00     0.012 A   
ATOM     27  C21 UNL     1      -3.532   1.161   2.132  1.00  0.00     0.045 A   
ATOM     28  C18 UNL     1      -3.924  -1.438   1.097  1.00  0.00     0.037 A   
ATOM     29  C20 UNL     1      -3.938   0.948   0.831  1.00  0.00     0.109 A   
ATOM     30  C19 UNL     1      -4.125  -0.315   0.326  1.00  0.00     0.108 A   
ATOM     31  O3  UNL     1      -4.160   1.916  -0.096  1.00  0.00    -0.316 OA  
ATOM     32  O4  UNL     1      -4.495  -0.301  -0.980  1.00  0.00    -0.316 OA  
ATOM     33  C22 UNL     1      -4.553   1.117  -1.237  1.00  0.00     0.337 C   
ENDBRANCH  24  25
ENDBRANCH  21  24
ENDBRANCH  16  21
ENDBRANCH   3  16
TORSDOF 9
