REMARK SMILES Cc1cnn(C)c1CCn1cc([C@H](CC(C)C)[NH2+]Cc2ccc3c(c2)OCO3)nn1
REMARK SMILES IDX 10 1 11 2 12 3 29 4 30 5 9 7 8 8 7 9 2 10 3 11 4 12 5 13
REMARK SMILES IDX 1 14 6 15 13 16 14 17 15 18 16 19 17 20 18 21 19 24 20 25
REMARK SMILES IDX 21 26 25 27 22 28 24 29 23 30 26 31 28 32 27 33
REMARK H PARENT 11 6 18 22 18 23
ROOT
ATOM     1   N3  UNL     1       1.898   0.971   2.853  1.00  0.00    -0.212 N   
ATOM     2   C8  UNL     1       1.494   1.591   1.702  1.00  0.00     0.045 A   
ATOM     3   C9  UNL     1       1.440   0.572   0.775  1.00  0.00     0.127 A   
ATOM     4   N5  UNL     1       1.942  -0.570   1.347  1.00  0.00    -0.132 NA  
ATOM     5   N6  UNL     1       2.224  -0.312   2.616  1.00  0.00    -0.076 NA  
ATOM     6   H12 UNL     1       1.159   2.619   1.693  1.00  0.00     0.083 HD  
ENDROOT
BRANCH   1   7
ATOM     7   C7  UNL     1       1.672   1.442   4.207  1.00  0.00     0.140 C   
BRANCH   7   8
ATOM     8   C6  UNL     1       0.363   0.896   4.812  1.00  0.00     0.075 C   
BRANCH   8   9
ATOM     9   C5  UNL     1      -0.795   1.031   3.863  1.00  0.00     0.034 A   
ATOM     10  C2  UNL     1      -1.536   2.135   3.474  1.00  0.00    -0.012 A   
ATOM     11  C3  UNL     1      -2.280   1.678   2.363  1.00  0.00     0.136 A   
ATOM     12  N1  UNL     1      -1.988   0.410   2.038  1.00  0.00    -0.190 NA  
ATOM     13  N2  UNL     1      -1.296  -0.016   3.126  1.00  0.00    -0.232 N   
ATOM     14  C1  UNL     1      -1.511   3.507   4.036  1.00  0.00     0.048 C   
ATOM     15  C4  UNL     1      -1.102  -1.431   3.346  1.00  0.00     0.159 C   
ENDBRANCH   8   9
ENDBRANCH   7   8
ENDBRANCH   1   7
BRANCH   3  16
ATOM     16  C10 UNL     1       0.800   0.508  -0.575  1.00  0.00     0.114 C   
BRANCH  16  17
ATOM     17  C11 UNL     1       0.720   1.850  -1.333  1.00  0.00     0.064 C   
BRANCH  17  18
ATOM     18  C12 UNL     1       2.019   2.253  -2.069  1.00  0.00    -0.012 C   
ATOM     19  C13 UNL     1       1.740   3.460  -2.974  1.00  0.00     0.007 C   
ATOM     20  C14 UNL     1       3.183   2.583  -1.135  1.00  0.00     0.007 C   
ENDBRANCH  17  18
ENDBRANCH  16  17
BRANCH  16  21
ATOM     21  N4  UNL     1      -0.618  -0.017  -0.419  1.00  0.00     0.249 N   
ATOM     22  H23 UNL     1      -1.010   0.305   0.491  1.00  0.00     0.199 HD  
ATOM     23  H24 UNL     1      -1.243   0.373  -1.127  1.00  0.00     0.199 HD  
BRANCH  21  24
ATOM     24  C15 UNL     1      -0.766  -1.499  -0.430  1.00  0.00     0.164 C   
BRANCH  24  25
ATOM     25  C16 UNL     1      -0.548  -2.095  -1.794  1.00  0.00    -0.002 A   
ATOM     26  C17 UNL     1       0.614  -2.858  -2.062  1.00  0.00     0.012 A   
ATOM     27  C21 UNL     1      -1.484  -1.878  -2.819  1.00  0.00     0.045 A   
ATOM     28  C18 UNL     1       0.846  -3.391  -3.334  1.00  0.00     0.037 A   
ATOM     29  C20 UNL     1      -1.223  -2.415  -4.062  1.00  0.00     0.109 A   
ATOM     30  C19 UNL     1      -0.091  -3.150  -4.313  1.00  0.00     0.108 A   
ATOM     31  O1  UNL     1      -2.016  -2.290  -5.158  1.00  0.00    -0.316 OA  
ATOM     32  O2  UNL     1      -0.030  -3.582  -5.598  1.00  0.00    -0.316 OA  
ATOM     33  C22 UNL     1      -1.266  -3.056  -6.127  1.00  0.00     0.337 C   
ENDBRANCH  24  25
ENDBRANCH  21  24
ENDBRANCH  16  21
ENDBRANCH   3  16
TORSDOF 9
