REMARK SMILES COc1ccc(C)cc1-n1cc([C@@H]([NH2+]Cc2ccc3c(c2)OCO3)C2CCCC2)nn1
REMARK SMILES IDX 10 1 11 2 12 3 30 4 31 5 9 6 3 7 4 8 5 9 8 10 6 11 7 12 2 13
REMARK SMILES IDX 1 14 13 15 14 16 15 19 16 20 17 21 21 22 18 23 20 24 19 25
REMARK SMILES IDX 22 26 24 27 23 28 25 29 26 30 29 31 27 32 28 33
REMARK H PARENT 14 17 14 18
ROOT
ATOM     1   N1  UNL     1       2.853   0.902  -0.155  1.00  0.00    -0.178 N   
ATOM     2   C9  UNL     1       1.973   1.127   0.889  1.00  0.00     0.135 A   
ATOM     3   C10 UNL     1       0.852   0.383   0.599  1.00  0.00     0.127 A   
ATOM     4   N3  UNL     1       1.039  -0.261  -0.588  1.00  0.00    -0.131 NA  
ATOM     5   N4  UNL     1       2.235   0.067  -1.044  1.00  0.00    -0.071 NA  
ENDROOT
BRANCH   1   6
ATOM     6   C8  UNL     1       4.169   1.392  -0.402  1.00  0.00     0.088 A   
ATOM     7   C2  UNL     1       4.862   2.240   0.485  1.00  0.00     0.098 A   
ATOM     8   C3  UNL     1       6.147   2.679   0.132  1.00  0.00     0.036 A   
ATOM     9   C4  UNL     1       6.748   2.281  -1.065  1.00  0.00     0.006 A   
ATOM     10  C7  UNL     1       4.793   0.995  -1.607  1.00  0.00     0.032 A   
ATOM     11  C5  UNL     1       6.083   1.424  -1.938  1.00  0.00    -0.049 A   
ATOM     12  C6  UNL     1       6.717   1.019  -3.236  1.00  0.00     0.044 C   
BRANCH   7  13
ATOM     13  O1  UNL     1       4.255   2.607   1.655  1.00  0.00    -0.347 OA  
ATOM     14  C1  UNL     1       5.001   3.387   2.586  1.00  0.00     0.203 C   
ENDBRANCH   7  13
ENDBRANCH   1   6
BRANCH   3  15
ATOM     15  C11 UNL     1      -0.438   0.217   1.338  1.00  0.00     0.117 C   
BRANCH  15  16
ATOM     16  N2  UNL     1      -1.517  -0.243   0.396  1.00  0.00     0.249 N   
ATOM     17  H12 UNL     1      -2.289  -0.710   0.879  1.00  0.00     0.199 HD  
ATOM     18  H13 UNL     1      -1.091  -0.954  -0.217  1.00  0.00     0.199 HD  
BRANCH  16  19
ATOM     19  C12 UNL     1      -2.077   0.813  -0.494  1.00  0.00     0.164 C   
BRANCH  19  20
ATOM     20  C13 UNL     1      -3.040   0.209  -1.476  1.00  0.00    -0.002 A   
ATOM     21  C14 UNL     1      -2.563  -0.329  -2.696  1.00  0.00     0.012 A   
ATOM     22  C18 UNL     1      -4.407   0.117  -1.164  1.00  0.00     0.045 A   
ATOM     23  C15 UNL     1      -3.437  -0.941  -3.601  1.00  0.00     0.037 A   
ATOM     24  C17 UNL     1      -5.240  -0.494  -2.079  1.00  0.00     0.109 A   
ATOM     25  C16 UNL     1      -4.770  -1.008  -3.262  1.00  0.00     0.108 A   
ATOM     26  O2  UNL     1      -6.580  -0.667  -1.933  1.00  0.00    -0.316 OA  
ATOM     27  O3  UNL     1      -5.755  -1.565  -4.013  1.00  0.00    -0.316 OA  
ATOM     28  C19 UNL     1      -6.907  -1.336  -3.173  1.00  0.00     0.337 C   
ENDBRANCH  19  20
ENDBRANCH  16  19
ENDBRANCH  15  16
BRANCH  15  29
ATOM     29  C20 UNL     1      -0.289  -0.758   2.521  1.00  0.00     0.043 C   
ATOM     30  C21 UNL     1      -1.497  -0.827   3.457  1.00  0.00     0.010 C   
ATOM     31  C24 UNL     1      -0.065  -2.232   2.166  1.00  0.00     0.010 C   
ATOM     32  C22 UNL     1      -1.187  -2.033   4.335  1.00  0.00     0.001 C   
ATOM     33  C23 UNL     1      -0.403  -2.998   3.446  1.00  0.00     0.001 C   
ENDBRANCH  15  29
ENDBRANCH   3  15
TORSDOF 7
