REMARK SMILES CC(C)C[C@H]([NH2+]Cc1ccc2c(c1)OCO2)c1cn([C@@H](CO)c2ccccn2)nn1
REMARK SMILES IDX 17 1 18 2 19 3 29 4 30 5 5 7 4 8 2 9 1 10 3 11 6 12 7 15
REMARK SMILES IDX 8 16 9 17 13 18 10 19 12 20 11 21 14 22 16 23 15 24 20 25
REMARK SMILES IDX 21 26 22 27 23 29 24 30 28 31 25 32 27 33 26 34
REMARK H PARENT 18 6 6 13 6 14 22 28
ROOT
ATOM     1   C14 UNL     1      -0.498   0.441  -0.269  1.00  0.00     0.127 A   
ATOM     2   C15 UNL     1      -1.788   0.888  -0.423  1.00  0.00     0.046 A   
ATOM     3   N2  UNL     1      -2.309   0.093  -1.410  1.00  0.00    -0.201 N   
ATOM     4   N4  UNL     1      -1.389  -0.804  -1.824  1.00  0.00    -0.075 NA  
ATOM     5   N5  UNL     1      -0.275  -0.593  -1.140  1.00  0.00    -0.132 NA  
ATOM     6   H20 UNL     1      -2.374   1.662   0.060  1.00  0.00     0.083 HD  
ENDROOT
BRANCH   1   7
ATOM     7   C5  UNL     1       0.577   0.859   0.678  1.00  0.00     0.114 C   
BRANCH   7   8
ATOM     8   C4  UNL     1       1.522   1.907   0.055  1.00  0.00     0.064 C   
BRANCH   8   9
ATOM     9   C2  UNL     1       0.879   3.297  -0.149  1.00  0.00    -0.012 C   
ATOM     10  C1  UNL     1       1.769   4.160  -1.045  1.00  0.00     0.007 C   
ATOM     11  C3  UNL     1       0.631   4.012   1.182  1.00  0.00     0.007 C   
ENDBRANCH   8   9
ENDBRANCH   7   8
BRANCH   7  12
ATOM     12  N1  UNL     1       1.418  -0.337   1.062  1.00  0.00     0.249 N   
ATOM     13  H11 UNL     1       1.680  -0.815   0.189  1.00  0.00     0.199 HD  
ATOM     14  H12 UNL     1       2.292  -0.045   1.512  1.00  0.00     0.199 HD  
BRANCH  12  15
ATOM     15  C6  UNL     1       0.737  -1.337   1.934  1.00  0.00     0.164 C   
BRANCH  15  16
ATOM     16  C7  UNL     1       1.682  -2.442   2.310  1.00  0.00    -0.002 A   
ATOM     17  C8  UNL     1       1.915  -3.516   1.416  1.00  0.00     0.012 A   
ATOM     18  C12 UNL     1       2.374  -2.394   3.532  1.00  0.00     0.045 A   
ATOM     19  C9  UNL     1       2.821  -4.533   1.737  1.00  0.00     0.037 A   
ATOM     20  C11 UNL     1       3.255  -3.414   3.818  1.00  0.00     0.109 A   
ATOM     21  C10 UNL     1       3.476  -4.453   2.946  1.00  0.00     0.108 A   
ATOM     22  O1  UNL     1       3.995  -3.523   4.954  1.00  0.00    -0.316 OA  
ATOM     23  O2  UNL     1       4.385  -5.343   3.421  1.00  0.00    -0.316 OA  
ATOM     24  C13 UNL     1       4.651  -4.791   4.728  1.00  0.00     0.337 C   
ENDBRANCH  15  16
ENDBRANCH  12  15
ENDBRANCH   7  12
ENDBRANCH   1   7
BRANCH   3  25
ATOM     25  C16 UNL     1      -3.650   0.099  -1.992  1.00  0.00     0.174 C   
BRANCH  25  26
ATOM     26  C17 UNL     1      -4.736  -0.213  -0.943  1.00  0.00     0.187 C   
BRANCH  26  27
ATOM     27  O3  UNL     1      -4.835   0.773   0.087  1.00  0.00    -0.394 OA  
ATOM     28  H24 UNL     1      -5.051   1.613  -0.380  1.00  0.00     0.210 HD  
ENDBRANCH  26  27
ENDBRANCH  25  26
BRANCH  25  29
ATOM     29  C18 UNL     1      -3.883   1.395  -2.752  1.00  0.00     0.065 A   
ATOM     30  C19 UNL     1      -3.373   1.545  -4.042  1.00  0.00     0.026 A   
ATOM     31  N3  UNL     1      -4.565   2.392  -2.123  1.00  0.00    -0.259 NA  
ATOM     32  C20 UNL     1      -3.579   2.742  -4.713  1.00  0.00     0.004 A   
ATOM     33  C22 UNL     1      -4.760   3.542  -2.807  1.00  0.00     0.111 A   
ATOM     34  C21 UNL     1      -4.289   3.760  -4.088  1.00  0.00     0.020 A   
ENDBRANCH  25  29
ENDBRANCH   3  25
TORSDOF 10
