REMARK SMILES CC(C)C[C@H]([NH2+]Cc1ccc2c(c1)OCO2)c1cn([C@H](CO)c2ccccn2)nn1
REMARK SMILES IDX 17 1 18 2 19 3 29 4 30 5 5 7 4 8 2 9 1 10 3 11 6 12 7 15
REMARK SMILES IDX 8 16 9 17 13 18 10 19 12 20 11 21 14 22 16 23 15 24 20 25
REMARK SMILES IDX 21 26 22 27 23 29 24 30 28 31 25 32 27 33 26 34
REMARK H PARENT 18 6 6 13 6 14 22 28
ROOT
ATOM     1   C14 UNL     1      -0.697  -1.038  -0.736  1.00  0.00     0.127 A   
ATOM     2   C15 UNL     1      -0.602  -2.362  -1.094  1.00  0.00     0.046 A   
ATOM     3   N2  UNL     1      -0.223  -3.000   0.058  1.00  0.00    -0.201 N   
ATOM     4   N4  UNL     1      -0.140  -2.119   1.079  1.00  0.00    -0.075 NA  
ATOM     5   N5  UNL     1      -0.427  -0.918   0.606  1.00  0.00    -0.132 NA  
ATOM     6   H20 UNL     1      -0.716  -2.894  -2.030  1.00  0.00     0.083 HD  
ENDROOT
BRANCH   1   7
ATOM     7   C5  UNL     1      -1.009   0.196  -1.527  1.00  0.00     0.114 C   
BRANCH   7   8
ATOM     8   C4  UNL     1      -0.404   0.167  -2.944  1.00  0.00     0.064 C   
BRANCH   8   9
ATOM     9   C2  UNL     1      -0.761   1.365  -3.849  1.00  0.00    -0.012 C   
ATOM     10  C1  UNL     1       0.036   1.279  -5.154  1.00  0.00     0.007 C   
ATOM     11  C3  UNL     1      -2.258   1.421  -4.166  1.00  0.00     0.007 C   
ENDBRANCH   8   9
ENDBRANCH   7   8
BRANCH   7  12
ATOM     12  N1  UNL     1      -0.469   1.395  -0.786  1.00  0.00     0.249 N   
ATOM     13  H11 UNL     1       0.328   1.817  -1.276  1.00  0.00     0.199 HD  
ATOM     14  H12 UNL     1      -0.064   1.033   0.094  1.00  0.00     0.199 HD  
BRANCH  12  15
ATOM     15  C6  UNL     1      -1.458   2.432  -0.408  1.00  0.00     0.164 C   
BRANCH  15  16
ATOM     16  C7  UNL     1      -0.779   3.570   0.301  1.00  0.00    -0.002 A   
ATOM     17  C8  UNL     1      -0.552   3.507   1.697  1.00  0.00     0.012 A   
ATOM     18  C12 UNL     1      -0.307   4.674  -0.430  1.00  0.00     0.045 A   
ATOM     19  C9  UNL     1       0.127   4.536   2.360  1.00  0.00     0.037 A   
ATOM     20  C11 UNL     1       0.358   5.670   0.255  1.00  0.00     0.109 A   
ATOM     21  C10 UNL     1       0.570   5.603   1.610  1.00  0.00     0.108 A   
ATOM     22  O1  UNL     1       0.875   6.798  -0.297  1.00  0.00    -0.316 OA  
ATOM     23  O2  UNL     1       1.248   6.682   2.082  1.00  0.00    -0.316 OA  
ATOM     24  C13 UNL     1       1.423   7.450   0.872  1.00  0.00     0.337 C   
ENDBRANCH  15  16
ENDBRANCH  12  15
ENDBRANCH   7  12
ENDBRANCH   1   7
BRANCH   3  25
ATOM     25  C16 UNL     1       0.123  -4.402   0.268  1.00  0.00     0.174 C   
BRANCH  25  26
ATOM     26  C17 UNL     1       1.487  -4.740  -0.363  1.00  0.00     0.187 C   
BRANCH  26  27
ATOM     27  O3  UNL     1       1.504  -4.592  -1.786  1.00  0.00    -0.394 OA  
ATOM     28  H24 UNL     1       0.821  -5.214  -2.124  1.00  0.00     0.210 HD  
ENDBRANCH  26  27
ENDBRANCH  25  26
BRANCH  25  29
ATOM     29  C18 UNL     1      -1.004  -5.307  -0.200  1.00  0.00     0.065 A   
ATOM     30  C19 UNL     1      -2.069  -5.596   0.654  1.00  0.00     0.026 A   
ATOM     31  N3  UNL     1      -0.947  -5.791  -1.472  1.00  0.00    -0.259 NA  
ATOM     32  C20 UNL     1      -3.092  -6.424   0.200  1.00  0.00     0.004 A   
ATOM     33  C22 UNL     1      -1.955  -6.596  -1.882  1.00  0.00     0.111 A   
ATOM     34  C21 UNL     1      -3.036  -6.936  -1.090  1.00  0.00     0.020 A   
ENDBRANCH  25  29
ENDBRANCH   3  25
TORSDOF 10
