REMARK SMILES Cc1noc(C)c1CCn1cc([C@@H]([NH2+]Cc2ccc3c(c2)OCO3)C2CCCCC2)nn1
REMARK SMILES IDX 10 1 11 2 12 3 31 4 32 5 9 7 8 8 7 9 2 10 3 11 4 12 5 13
REMARK SMILES IDX 1 14 6 15 13 16 14 17 15 20 16 21 17 22 21 23 18 24 20 25
REMARK SMILES IDX 19 26 22 27 24 28 23 29 25 30 26 31 30 32 27 33 29 34 28 35
REMARK H PARENT 11 6 14 18 14 19
ROOT
ATOM     1   N2  UNL     1       0.445   2.101  -0.282  1.00  0.00    -0.212 N   
ATOM     2   C8  UNL     1       0.212   0.771  -0.487  1.00  0.00     0.045 A   
ATOM     3   C9  UNL     1       0.567   0.186   0.707  1.00  0.00     0.127 A   
ATOM     4   N4  UNL     1       1.043   1.153   1.558  1.00  0.00    -0.132 NA  
ATOM     5   N5  UNL     1       0.961   2.321   0.941  1.00  0.00    -0.076 NA  
ATOM     6   H11 UNL     1      -0.196   0.385  -1.411  1.00  0.00     0.083 HD  
ENDROOT
BRANCH   1   7
ATOM     7   C7  UNL     1       0.150   3.202  -1.174  1.00  0.00     0.139 C   
BRANCH   7   8
ATOM     8   C6  UNL     1      -1.150   3.927  -0.815  1.00  0.00     0.061 C   
BRANCH   8   9
ATOM     9   C5  UNL     1      -2.337   3.021  -0.788  1.00  0.00     0.006 A   
ATOM     10  C2  UNL     1      -3.011   2.401  -1.877  1.00  0.00     0.071 A   
ATOM     11  N1  UNL     1      -3.971   1.575  -1.446  1.00  0.00    -0.134 NA  
ATOM     12  O1  UNL     1      -3.989   1.696  -0.072  1.00  0.00    -0.218 OA  
ATOM     13  C3  UNL     1      -3.022   2.565   0.319  1.00  0.00     0.087 A   
ATOM     14  C1  UNL     1      -2.754   2.533  -3.331  1.00  0.00     0.070 C   
ATOM     15  C4  UNL     1      -2.907   2.803   1.771  1.00  0.00     0.076 C   
ENDBRANCH   8   9
ENDBRANCH   7   8
ENDBRANCH   1   7
BRANCH   3  16
ATOM     16  C10 UNL     1       0.564  -1.244   1.141  1.00  0.00     0.117 C   
BRANCH  16  17
ATOM     17  N3  UNL     1       1.796  -1.519   1.983  1.00  0.00     0.249 N   
ATOM     18  H13 UNL     1       1.572  -2.165   2.747  1.00  0.00     0.199 HD  
ATOM     19  H14 UNL     1       2.038  -0.620   2.429  1.00  0.00     0.199 HD  
BRANCH  17  20
ATOM     20  C11 UNL     1       2.996  -2.027   1.257  1.00  0.00     0.164 C   
BRANCH  20  21
ATOM     21  C12 UNL     1       3.506  -1.107   0.184  1.00  0.00    -0.002 A   
ATOM     22  C13 UNL     1       4.157   0.103   0.524  1.00  0.00     0.012 A   
ATOM     23  C17 UNL     1       3.297  -1.420  -1.171  1.00  0.00     0.045 A   
ATOM     24  C14 UNL     1       4.579   0.997  -0.466  1.00  0.00     0.037 A   
ATOM     25  C16 UNL     1       3.726  -0.517  -2.122  1.00  0.00     0.109 A   
ATOM     26  C15 UNL     1       4.346   0.659  -1.780  1.00  0.00     0.108 A   
ATOM     27  O2  UNL     1       3.582  -0.657  -3.466  1.00  0.00    -0.316 OA  
ATOM     28  O3  UNL     1       4.672   1.407  -2.866  1.00  0.00    -0.316 OA  
ATOM     29  C18 UNL     1       4.240   0.540  -3.937  1.00  0.00     0.337 C   
ENDBRANCH  20  21
ENDBRANCH  17  20
ENDBRANCH  16  17
BRANCH  16  30
ATOM     30  C19 UNL     1      -0.697  -1.657   1.948  1.00  0.00     0.043 C   
ATOM     31  C20 UNL     1      -1.968  -1.590   1.077  1.00  0.00     0.010 C   
ATOM     32  C24 UNL     1      -0.904  -0.866   3.254  1.00  0.00     0.010 C   
ATOM     33  C21 UNL     1      -3.203  -2.065   1.839  1.00  0.00     0.001 C   
ATOM     34  C23 UNL     1      -2.144  -1.343   4.010  1.00  0.00     0.001 C   
ATOM     35  C22 UNL     1      -3.393  -1.288   3.138  1.00  0.00     0.000 C   
ENDBRANCH  16  30
ENDBRANCH   3  16
TORSDOF 8
