REMARK SMILES CC(C)C[C@H]([NH2+]Cc1ccc2c(c1)OCO2)c1cn(-c2cccc(S(N)(=O)=O)c2)nn1
REMARK SMILES IDX 17 1 18 2 19 3 30 4 31 5 5 6 4 7 2 8 1 9 3 10 6 11 7 14 8 15
REMARK SMILES IDX 9 16 13 17 10 18 12 19 11 20 14 21 16 22 15 23 20 24 21 25
REMARK SMILES IDX 29 26 22 27 24 28 23 29 25 30 27 31 28 32 26 33
REMARK H PARENT 6 12 6 13 26 34 26 35
ROOT
ATOM     1   C14 UNL     1       0.736  -0.667   0.159  1.00  0.00     0.127 A   
ATOM     2   C15 UNL     1      -0.270  -1.042  -0.705  1.00  0.00     0.135 A   
ATOM     3   N2  UNL     1      -0.063  -2.390  -0.934  1.00  0.00    -0.180 N   
ATOM     4   N4  UNL     1       0.986  -2.804  -0.179  1.00  0.00    -0.071 NA  
ATOM     5   N5  UNL     1       1.490  -1.765   0.466  1.00  0.00    -0.131 NA  
ENDROOT
BRANCH   1   6
ATOM     6   C5  UNL     1       1.082   0.649   0.782  1.00  0.00     0.114 C   
BRANCH   6   7
ATOM     7   C4  UNL     1       1.994   1.513  -0.108  1.00  0.00     0.064 C   
BRANCH   7   8
ATOM     8   C2  UNL     1       1.360   2.016  -1.423  1.00  0.00    -0.012 C   
ATOM     9   C1  UNL     1       0.106   2.857  -1.183  1.00  0.00     0.007 C   
ATOM     10  C3  UNL     1       2.390   2.839  -2.205  1.00  0.00     0.007 C   
ENDBRANCH   7   8
ENDBRANCH   6   7
BRANCH   6  11
ATOM     11  N1  UNL     1       1.836   0.401   2.074  1.00  0.00     0.249 N   
ATOM     12  H11 UNL     1       2.450   1.189   2.299  1.00  0.00     0.199 HD  
ATOM     13  H12 UNL     1       2.449  -0.409   1.895  1.00  0.00     0.199 HD  
BRANCH  11  14
ATOM     14  C6  UNL     1       0.997   0.085   3.264  1.00  0.00     0.164 C   
BRANCH  14  15
ATOM     15  C7  UNL     1       0.603   1.332   4.006  1.00  0.00    -0.002 A   
ATOM     16  C8  UNL     1       1.500   1.907   4.940  1.00  0.00     0.012 A   
ATOM     17  C12 UNL     1      -0.623   1.968   3.745  1.00  0.00     0.045 A   
ATOM     18  C9  UNL     1       1.180   3.090   5.612  1.00  0.00     0.037 A   
ATOM     19  C11 UNL     1      -0.905   3.138   4.420  1.00  0.00     0.109 A   
ATOM     20  C10 UNL     1      -0.032   3.681   5.330  1.00  0.00     0.108 A   
ATOM     21  O1  UNL     1      -2.037   3.880   4.280  1.00  0.00    -0.316 OA  
ATOM     22  O2  UNL     1      -0.506   4.827   5.883  1.00  0.00    -0.316 OA  
ATOM     23  C13 UNL     1      -1.791   4.938   5.235  1.00  0.00     0.337 C   
ENDBRANCH  14  15
ENDBRANCH  11  14
ENDBRANCH   6  11
ENDBRANCH   1   6
BRANCH   3  24
ATOM     24  C16 UNL     1      -0.768  -3.273  -1.789  1.00  0.00     0.070 A   
ATOM     25  C17 UNL     1      -0.368  -4.618  -1.875  1.00  0.00     0.027 A   
ATOM     26  C21 UNL     1      -1.846  -2.822  -2.563  1.00  0.00     0.163 A   
ATOM     27  C18 UNL     1      -1.033  -5.502  -2.733  1.00  0.00     0.015 A   
ATOM     28  C20 UNL     1      -2.507  -3.721  -3.411  1.00  0.00     0.340 A   
ATOM     29  C19 UNL     1      -2.100  -5.055  -3.508  1.00  0.00     0.138 A   
BRANCH  28  30
ATOM     30  S1  UNL     1      -3.842  -3.154  -4.428  1.00  0.00    -0.114 S   
ATOM     31  O3  UNL     1      -3.694  -3.721  -5.745  1.00  0.00    -0.479 OA  
ATOM     32  O4  UNL     1      -4.021  -1.738  -4.199  1.00  0.00    -0.479 OA  
BRANCH  30  33
ATOM     33  N3  UNL     1      -5.165  -3.904  -3.725  1.00  0.00    -0.094 NA  
ATOM     34  H24 UNL     1      -5.833  -3.204  -3.397  1.00  0.00     0.263 HD  
ATOM     35  H25 UNL     1      -5.577  -4.575  -4.378  1.00  0.00     0.263 HD  
ENDBRANCH  30  33
ENDBRANCH  28  30
ENDBRANCH   3  24
TORSDOF 9
