REMARK SMILES OC[C@H](c1ncccc1F)n1cc([C@@H]([NH2+]Cc2ccc3c(c2)OCO3)C2CCCCC2)nn1
REMARK SMILES IDX 11 1 12 2 13 3 32 4 33 5 3 7 2 8 1 9 4 11 5 12 9 13 6 14
REMARK SMILES IDX 8 15 7 16 10 17 14 18 15 19 16 22 17 23 18 24 22 25 19 26
REMARK SMILES IDX 21 27 20 28 23 29 25 30 24 31 26 32 27 33 31 34 28 35 30 36
REMARK SMILES IDX 29 37
REMARK H PARENT 12 6 1 10 15 20 15 21
ROOT
ATOM     1   N2  UNL     1       0.859  -1.906  -1.669  1.00  0.00    -0.201 N   
ATOM     2   C8  UNL     1       0.481  -2.086  -0.365  1.00  0.00     0.046 A   
ATOM     3   C9  UNL     1       0.108  -0.831   0.058  1.00  0.00     0.127 A   
ATOM     4   N4  UNL     1       0.312   0.066  -0.957  1.00  0.00    -0.132 NA  
ATOM     5   N5  UNL     1       0.783  -0.595  -2.000  1.00  0.00    -0.075 NA  
ATOM     6   H8  UNL     1       0.494  -3.055   0.115  1.00  0.00     0.083 HD  
ENDROOT
BRANCH   1   7
ATOM     7   C2  UNL     1       1.316  -2.879  -2.656  1.00  0.00     0.177 C   
BRANCH   7   8
ATOM     8   C1  UNL     1       0.698  -4.278  -2.489  1.00  0.00     0.187 C   
BRANCH   8   9
ATOM     9   O1  UNL     1      -0.718  -4.237  -2.668  1.00  0.00    -0.394 OA  
ATOM     10  H1  UNL     1      -1.031  -5.159  -2.721  1.00  0.00     0.210 HD  
ENDBRANCH   8   9
ENDBRANCH   7   8
BRANCH   7  11
ATOM     11  C3  UNL     1       2.825  -2.963  -2.608  1.00  0.00     0.101 A   
ATOM     12  N1  UNL     1       3.404  -3.494  -1.491  1.00  0.00    -0.256 NA  
ATOM     13  C7  UNL     1       3.579  -2.515  -3.689  1.00  0.00     0.146 A   
ATOM     14  C4  UNL     1       4.757  -3.576  -1.475  1.00  0.00     0.111 A   
ATOM     15  C6  UNL     1       4.962  -2.607  -3.645  1.00  0.00     0.043 A   
ATOM     16  C5  UNL     1       5.568  -3.149  -2.515  1.00  0.00     0.023 A   
ATOM     17  F1  UNL     1       2.985  -2.013  -4.781  1.00  0.00    -0.205 F   
ENDBRANCH   7  11
ENDBRANCH   1   7
BRANCH   3  18
ATOM     18  C10 UNL     1      -0.426  -0.351   1.369  1.00  0.00     0.117 C   
BRANCH  18  19
ATOM     19  N3  UNL     1      -0.143   1.116   1.541  1.00  0.00     0.249 N   
ATOM     20  H10 UNL     1      -0.336   1.560   0.629  1.00  0.00     0.199 HD  
ATOM     21  H11 UNL     1      -0.773   1.560   2.215  1.00  0.00     0.199 HD  
BRANCH  19  22
ATOM     22  C11 UNL     1       1.263   1.452   1.897  1.00  0.00     0.164 C   
BRANCH  22  23
ATOM     23  C12 UNL     1       1.441   2.942   1.973  1.00  0.00    -0.002 A   
ATOM     24  C13 UNL     1       1.798   3.674   0.814  1.00  0.00     0.012 A   
ATOM     25  C17 UNL     1       1.195   3.624   3.176  1.00  0.00     0.045 A   
ATOM     26  C14 UNL     1       1.919   5.067   0.855  1.00  0.00     0.037 A   
ATOM     27  C16 UNL     1       1.322   4.998   3.180  1.00  0.00     0.109 A   
ATOM     28  C15 UNL     1       1.672   5.700   2.053  1.00  0.00     0.108 A   
ATOM     29  O2  UNL     1       1.113   5.806   4.253  1.00  0.00    -0.316 OA  
ATOM     30  O3  UNL     1       1.729   7.038   2.274  1.00  0.00    -0.316 OA  
ATOM     31  C18 UNL     1       1.396   7.103   3.677  1.00  0.00     0.337 C   
ENDBRANCH  22  23
ENDBRANCH  19  22
ENDBRANCH  18  19
BRANCH  18  32
ATOM     32  C19 UNL     1      -1.947  -0.631   1.512  1.00  0.00     0.043 C   
ATOM     33  C20 UNL     1      -2.827   0.194   0.551  1.00  0.00     0.010 C   
ATOM     34  C24 UNL     1      -2.428  -0.452   2.967  1.00  0.00     0.010 C   
ATOM     35  C21 UNL     1      -4.309  -0.149   0.711  1.00  0.00     0.001 C   
ATOM     36  C23 UNL     1      -3.910  -0.795   3.116  1.00  0.00     0.001 C   
ATOM     37  C22 UNL     1      -4.773   0.015   2.155  1.00  0.00     0.000 C   
ENDBRANCH  18  32
ENDBRANCH   3  18
TORSDOF 9
