REMARK SMILES OC[C@@H](c1ncccc1F)n1cc([C@@H]([NH2+]Cc2ccc3c(c2)OCO3)C2CCCCC2)nn1
REMARK SMILES IDX 11 1 12 2 13 3 32 4 33 5 3 7 2 8 1 9 4 11 5 12 9 13 6 14
REMARK SMILES IDX 8 15 7 16 10 17 14 18 15 19 16 22 17 23 18 24 22 25 19 26
REMARK SMILES IDX 21 27 20 28 23 29 25 30 24 31 26 32 27 33 31 34 28 35 30 36
REMARK SMILES IDX 29 37
REMARK H PARENT 12 6 1 10 15 20 15 21
ROOT
ATOM     1   N2  UNL     1       2.084   2.920  -0.758  1.00  0.00    -0.201 N   
ATOM     2   C8  UNL     1       1.438   1.853  -0.194  1.00  0.00     0.046 A   
ATOM     3   C9  UNL     1       2.152   0.760  -0.626  1.00  0.00     0.127 A   
ATOM     4   N4  UNL     1       3.194   1.181  -1.407  1.00  0.00    -0.132 NA  
ATOM     5   N5  UNL     1       3.142   2.501  -1.485  1.00  0.00    -0.075 NA  
ATOM     6   H8  UNL     1       0.534   1.966   0.390  1.00  0.00     0.083 HD  
ENDROOT
BRANCH   1   7
ATOM     7   C2  UNL     1       1.688   4.324  -0.795  1.00  0.00     0.177 C   
BRANCH   7   8
ATOM     8   C1  UNL     1       0.638   4.559  -1.896  1.00  0.00     0.187 C   
BRANCH   8   9
ATOM     9   O1  UNL     1      -0.561   3.800  -1.694  1.00  0.00    -0.394 OA  
ATOM     10  H1  UNL     1      -0.952   4.147  -0.863  1.00  0.00     0.210 HD  
ENDBRANCH   8   9
ENDBRANCH   7   8
BRANCH   7  11
ATOM     11  C3  UNL     1       1.236   4.801   0.570  1.00  0.00     0.101 A   
ATOM     12  N1  UNL     1      -0.098   4.766   0.864  1.00  0.00    -0.256 NA  
ATOM     13  C7  UNL     1       2.183   5.233   1.495  1.00  0.00     0.146 A   
ATOM     14  C4  UNL     1      -0.474   5.203   2.091  1.00  0.00     0.111 A   
ATOM     15  C6  UNL     1       1.771   5.667   2.747  1.00  0.00     0.043 A   
ATOM     16  C5  UNL     1       0.414   5.658   3.053  1.00  0.00     0.023 A   
ATOM     17  F1  UNL     1       3.486   5.234   1.187  1.00  0.00    -0.205 F   
ENDBRANCH   7  11
ENDBRANCH   1   7
BRANCH   3  18
ATOM     18  C10 UNL     1       1.884  -0.703  -0.476  1.00  0.00     0.117 C   
BRANCH  18  19
ATOM     19  N3  UNL     1       1.866  -1.324  -1.861  1.00  0.00     0.249 N   
ATOM     20  H10 UNL     1       1.836  -2.343  -1.807  1.00  0.00     0.199 HD  
ATOM     21  H11 UNL     1       2.757  -1.063  -2.306  1.00  0.00     0.199 HD  
BRANCH  19  22
ATOM     22  C11 UNL     1       0.765  -0.876  -2.771  1.00  0.00     0.164 C   
BRANCH  22  23
ATOM     23  C12 UNL     1      -0.595  -1.301  -2.289  1.00  0.00    -0.002 A   
ATOM     24  C13 UNL     1      -1.501  -0.344  -1.772  1.00  0.00     0.012 A   
ATOM     25  C17 UNL     1      -0.963  -2.657  -2.320  1.00  0.00     0.045 A   
ATOM     26  C14 UNL     1      -2.750  -0.733  -1.276  1.00  0.00     0.037 A   
ATOM     27  C16 UNL     1      -2.202  -3.004  -1.824  1.00  0.00     0.109 A   
ATOM     28  C15 UNL     1      -3.069  -2.072  -1.310  1.00  0.00     0.108 A   
ATOM     29  O2  UNL     1      -2.709  -4.264  -1.781  1.00  0.00    -0.316 OA  
ATOM     30  O3  UNL     1      -4.228  -2.629  -0.874  1.00  0.00    -0.316 OA  
ATOM     31  C18 UNL     1      -4.020  -4.012  -1.227  1.00  0.00     0.337 C   
ENDBRANCH  22  23
ENDBRANCH  19  22
ENDBRANCH  18  19
BRANCH  18  32
ATOM     32  C19 UNL     1       2.962  -1.423   0.391  1.00  0.00     0.043 C   
ATOM     33  C20 UNL     1       2.699  -2.932   0.592  1.00  0.00     0.010 C   
ATOM     34  C24 UNL     1       3.119  -0.785   1.792  1.00  0.00     0.010 C   
ATOM     35  C21 UNL     1       1.482  -3.210   1.474  1.00  0.00     0.001 C   
ATOM     36  C23 UNL     1       1.906  -1.027   2.689  1.00  0.00     0.001 C   
ATOM     37  C22 UNL     1       1.598  -2.515   2.827  1.00  0.00     0.000 C   
ENDBRANCH  18  32
ENDBRANCH   3  18
TORSDOF 9
