REMARK SMILES Cc1ccc(Cn2cc([C@@H]([NH2+]Cc3ccc4c(c3)OCO4)C3CCCCC3)nn2)cc1N([O-])[O-]
REMARK SMILES IDX 7 1 8 2 9 3 28 4 29 5 6 7 5 8 2 9 3 10 31 11 4 12 30 13 1 14
REMARK SMILES IDX 32 15 33 16 34 17 10 18 11 19 12 22 13 23 14 24 18 25 15 26
REMARK SMILES IDX 17 27 16 28 19 29 21 30 20 31 22 32 23 33 27 34 24 35 26 36
REMARK SMILES IDX 25 37
REMARK H PARENT 8 6 11 20 11 21
ROOT
ATOM     1   N1  UNL     1      -2.538   0.354  -1.356  1.00  0.00    -0.208 N   
ATOM     2   C7  UNL     1      -1.340   0.751  -0.822  1.00  0.00     0.046 A   
ATOM     3   C8  UNL     1      -0.418   0.443  -1.799  1.00  0.00     0.127 A   
ATOM     4   N3  UNL     1      -1.072  -0.102  -2.874  1.00  0.00    -0.132 NA  
ATOM     5   N4  UNL     1      -2.362  -0.159  -2.589  1.00  0.00    -0.076 NA  
ATOM     6   H8  UNL     1      -1.258   1.191   0.161  1.00  0.00     0.083 HD  
ENDROOT
BRANCH   1   7
ATOM     7   C6  UNL     1      -3.877   0.508  -0.808  1.00  0.00     0.169 C   
BRANCH   7   8
ATOM     8   C5  UNL     1      -3.997  -0.077   0.577  1.00  0.00    -0.026 A   
ATOM     9   C2  UNL     1      -4.187  -1.193   3.190  1.00  0.00    -0.022 A   
ATOM     10  C3  UNL     1      -4.319  -1.996   2.047  1.00  0.00     0.006 A   
ATOM     11  C25 UNL     1      -3.976   0.182   2.996  1.00  0.00     0.121 A   
ATOM     12  C4  UNL     1      -4.217  -1.450   0.760  1.00  0.00     0.006 A   
ATOM     13  C24 UNL     1      -3.879   0.741   1.710  1.00  0.00     0.037 A   
ATOM     14  C1  UNL     1      -4.299  -1.827   4.550  1.00  0.00     0.046 C   
BRANCH  11  15
ATOM     15  N5  UNL     1      -3.810   1.091   4.126  1.00  0.00     0.092 N   
ATOM     16  O3  UNL     1      -4.665   1.065   5.019  1.00  0.00    -0.138 OA  
ATOM     17  O4  UNL     1      -2.826   1.845   4.086  1.00  0.00    -0.138 OA  
ENDBRANCH  11  15
ENDBRANCH   7   8
ENDBRANCH   1   7
BRANCH   3  18
ATOM     18  C9  UNL     1       1.071   0.608  -1.843  1.00  0.00     0.117 C   
BRANCH  18  19
ATOM     19  N2  UNL     1       1.646  -0.158  -3.010  1.00  0.00     0.249 N   
ATOM     20  H10 UNL     1       2.537   0.238  -3.321  1.00  0.00     0.199 HD  
ATOM     21  H11 UNL     1       0.978  -0.037  -3.785  1.00  0.00     0.199 HD  
BRANCH  19  22
ATOM     22  C10 UNL     1       1.813  -1.627  -2.804  1.00  0.00     0.164 C   
BRANCH  22  23
ATOM     23  C11 UNL     1       2.997  -1.954  -1.935  1.00  0.00    -0.002 A   
ATOM     24  C12 UNL     1       2.808  -2.425  -0.613  1.00  0.00     0.012 A   
ATOM     25  C16 UNL     1       4.303  -1.777  -2.425  1.00  0.00     0.045 A   
ATOM     26  C13 UNL     1       3.901  -2.714   0.212  1.00  0.00     0.037 A   
ATOM     27  C15 UNL     1       5.358  -2.071  -1.585  1.00  0.00     0.109 A   
ATOM     28  C14 UNL     1       5.164  -2.532  -0.304  1.00  0.00     0.108 A   
ATOM     29  O1  UNL     1       6.674  -1.955  -1.901  1.00  0.00    -0.316 OA  
ATOM     30  O2  UNL     1       6.333  -2.754   0.348  1.00  0.00    -0.316 OA  
ATOM     31  C17 UNL     1       7.292  -2.440  -0.685  1.00  0.00     0.337 C   
ENDBRANCH  22  23
ENDBRANCH  19  22
ENDBRANCH  18  19
BRANCH  18  32
ATOM     32  C18 UNL     1       1.495   2.100  -1.916  1.00  0.00     0.043 C   
ATOM     33  C19 UNL     1       2.997   2.282  -1.615  1.00  0.00     0.010 C   
ATOM     34  C23 UNL     1       1.129   2.789  -3.246  1.00  0.00     0.010 C   
ATOM     35  C20 UNL     1       3.398   3.756  -1.617  1.00  0.00     0.001 C   
ATOM     36  C22 UNL     1       1.537   4.263  -3.244  1.00  0.00     0.001 C   
ATOM     37  C21 UNL     1       3.019   4.440  -2.927  1.00  0.00     0.000 C   
ENDBRANCH  18  32
ENDBRANCH   3  18
TORSDOF 8
