REMARK SMILES Cc1cc(C)c(-n2cc([C@@H]([NH2+]Cc3ccc4c(c3)OCO4)C(C)C)nn2)cc1N
REMARK SMILES IDX 7 1 8 2 9 3 25 4 26 5 6 6 2 7 3 8 28 9 4 10 27 11 1 12 5 13
REMARK SMILES IDX 29 14 10 17 11 18 12 21 13 22 14 23 18 24 15 25 17 26 16 27
REMARK SMILES IDX 19 28 21 29 20 30 22 31 23 32 24 33
REMARK H PARENT 29 15 29 16 11 19 11 20
ROOT
ATOM     1   N1  UNL     1      -0.666   1.639  -0.234  1.00  0.00    -0.180 N   
ATOM     2   C7  UNL     1       0.538   1.079   0.172  1.00  0.00     0.135 A   
ATOM     3   C8  UNL     1       0.847   0.136  -0.781  1.00  0.00     0.127 A   
ATOM     4   N3  UNL     1      -0.137   0.121  -1.724  1.00  0.00    -0.131 NA  
ATOM     5   N4  UNL     1      -1.043   1.018  -1.381  1.00  0.00    -0.071 NA  
ENDROOT
BRANCH   1   6
ATOM     6   C6  UNL     1      -1.438   2.658   0.402  1.00  0.00     0.062 A   
ATOM     7   C2  UNL     1      -2.910   4.606   1.837  1.00  0.00    -0.030 A   
ATOM     8   C3  UNL     1      -3.372   4.101   0.611  1.00  0.00     0.010 A   
ATOM     9   C22 UNL     1      -1.663   4.194   2.317  1.00  0.00     0.028 A   
ATOM     10  C4  UNL     1      -2.653   3.141  -0.129  1.00  0.00    -0.027 A   
ATOM     11  C21 UNL     1      -0.971   3.190   1.623  1.00  0.00     0.049 A   
ATOM     12  C1  UNL     1      -3.756   5.604   2.580  1.00  0.00     0.046 C   
ATOM     13  C5  UNL     1      -3.268   2.697  -1.431  1.00  0.00     0.046 C   
BRANCH   9  14
ATOM     14  N5  UNL     1      -1.194   4.586   3.578  1.00  0.00    -0.358 N   
ATOM     15  H27 UNL     1      -1.558   5.479   3.899  1.00  0.00     0.143 HD  
ATOM     16  H28 UNL     1      -0.188   4.536   3.696  1.00  0.00     0.143 HD  
ENDBRANCH   9  14
ENDBRANCH   1   6
BRANCH   3  17
ATOM     17  C9  UNL     1       1.998  -0.813  -0.896  1.00  0.00     0.117 C   
BRANCH  17  18
ATOM     18  N2  UNL     1       1.607  -2.025  -1.709  1.00  0.00     0.249 N   
ATOM     19  H10 UNL     1       1.111  -1.669  -2.539  1.00  0.00     0.199 HD  
ATOM     20  H11 UNL     1       2.434  -2.524  -2.045  1.00  0.00     0.199 HD  
BRANCH  18  21
ATOM     21  C10 UNL     1       0.694  -3.001  -1.040  1.00  0.00     0.164 C   
BRANCH  21  22
ATOM     22  C11 UNL     1       1.353  -3.727   0.100  1.00  0.00    -0.002 A   
ATOM     23  C12 UNL     1       0.958  -3.467   1.435  1.00  0.00     0.012 A   
ATOM     24  C16 UNL     1       2.383  -4.652  -0.147  1.00  0.00     0.045 A   
ATOM     25  C13 UNL     1       1.583  -4.110   2.509  1.00  0.00     0.037 A   
ATOM     26  C15 UNL     1       2.980  -5.266   0.934  1.00  0.00     0.109 A   
ATOM     27  C14 UNL     1       2.593  -5.002   2.225  1.00  0.00     0.108 A   
ATOM     28  O1  UNL     1       3.990  -6.173   0.869  1.00  0.00    -0.316 OA  
ATOM     29  O2  UNL     1       3.309  -5.711   3.135  1.00  0.00    -0.316 OA  
ATOM     30  C17 UNL     1       4.176  -6.477   2.271  1.00  0.00     0.337 C   
ENDBRANCH  21  22
ENDBRANCH  18  21
ENDBRANCH  17  18
BRANCH  17  31
ATOM     31  C18 UNL     1       3.253  -0.138  -1.510  1.00  0.00     0.037 C   
ATOM     32  C19 UNL     1       3.102   0.230  -2.991  1.00  0.00     0.014 C   
ATOM     33  C20 UNL     1       4.509  -0.996  -1.315  1.00  0.00     0.014 C   
ENDBRANCH  17  31
ENDBRANCH   3  17
TORSDOF 7
