REMARK SMILES Cc1cccc(CCn2cc([C@@H]([NH2+]Cc3ccc4c(c3)OCO4)C(C)C)nn2)c1
REMARK SMILES IDX 9 1 10 2 11 3 27 4 28 5 8 7 7 8 6 9 2 10 3 11 29 12 4 13
REMARK SMILES IDX 5 14 1 15 12 16 13 17 14 20 15 21 16 22 20 23 17 24 19 25
REMARK SMILES IDX 18 26 21 27 23 28 22 29 24 30 25 31 26 32
REMARK H PARENT 10 6 13 18 13 19
ROOT
ATOM     1   N1  UNL     1      -3.146  -0.592  -0.527  1.00  0.00    -0.212 N   
ATOM     2   C9  UNL     1      -2.257  -1.098   0.378  1.00  0.00     0.045 A   
ATOM     3   C10 UNL     1      -1.933  -0.015   1.164  1.00  0.00     0.127 A   
ATOM     4   N3  UNL     1      -2.630   1.083   0.726  1.00  0.00    -0.132 NA  
ATOM     5   N4  UNL     1      -3.373   0.715  -0.305  1.00  0.00    -0.076 NA  
ATOM     6   H11 UNL     1      -1.921  -2.125   0.351  1.00  0.00     0.083 HD  
ENDROOT
BRANCH   1   7
ATOM     7   C8  UNL     1      -3.751  -1.270  -1.655  1.00  0.00     0.139 C   
BRANCH   7   8
ATOM     8   C7  UNL     1      -3.154  -0.843  -2.997  1.00  0.00     0.057 C   
BRANCH   8   9
ATOM     9   C6  UNL     1      -1.664  -1.086  -3.096  1.00  0.00    -0.046 A   
ATOM     10  C2  UNL     1       0.610  -0.209  -3.211  1.00  0.00    -0.051 A   
ATOM     11  C3  UNL     1       1.099  -1.518  -3.266  1.00  0.00     0.003 A   
ATOM     12  C23 UNL     1      -0.773  -0.002  -3.134  1.00  0.00     0.007 A   
ATOM     13  C4  UNL     1       0.222  -2.602  -3.229  1.00  0.00     0.001 A   
ATOM     14  C5  UNL     1      -1.153  -2.388  -3.146  1.00  0.00     0.004 A   
ATOM     15  C1  UNL     1       1.550   0.956  -3.314  1.00  0.00     0.044 C   
ENDBRANCH   8   9
ENDBRANCH   7   8
ENDBRANCH   1   7
BRANCH   3  16
ATOM     16  C11 UNL     1      -0.928   0.137   2.256  1.00  0.00     0.117 C   
BRANCH  16  17
ATOM     17  N2  UNL     1      -0.205   1.459   2.106  1.00  0.00     0.249 N   
ATOM     18  H13 UNL     1       0.324   1.675   2.955  1.00  0.00     0.199 HD  
ATOM     19  H14 UNL     1      -0.939   2.174   2.004  1.00  0.00     0.199 HD  
BRANCH  17  20
ATOM     20  C12 UNL     1       0.690   1.587   0.917  1.00  0.00     0.164 C   
BRANCH  20  21
ATOM     21  C13 UNL     1       1.931   0.745   1.025  1.00  0.00    -0.002 A   
ATOM     22  C14 UNL     1       3.015   1.166   1.832  1.00  0.00     0.012 A   
ATOM     23  C18 UNL     1       2.011  -0.483   0.347  1.00  0.00     0.045 A   
ATOM     24  C15 UNL     1       4.163   0.377   1.959  1.00  0.00     0.037 A   
ATOM     25  C17 UNL     1       3.156  -1.236   0.492  1.00  0.00     0.109 A   
ATOM     26  C16 UNL     1       4.203  -0.819   1.277  1.00  0.00     0.108 A   
ATOM     27  O1  UNL     1       3.392  -2.441  -0.090  1.00  0.00    -0.316 OA  
ATOM     28  O2  UNL     1       5.230  -1.706   1.285  1.00  0.00    -0.316 OA  
ATOM     29  C19 UNL     1       4.724  -2.724   0.396  1.00  0.00     0.337 C   
ENDBRANCH  20  21
ENDBRANCH  17  20
ENDBRANCH  16  17
BRANCH  16  30
ATOM     30  C20 UNL     1      -1.520   0.057   3.687  1.00  0.00     0.037 C   
ATOM     31  C21 UNL     1      -2.098  -1.334   3.975  1.00  0.00     0.014 C   
ATOM     32  C22 UNL     1      -2.570   1.127   4.004  1.00  0.00     0.014 C   
ENDBRANCH  16  30
ENDBRANCH   3  16
TORSDOF 8
