REMARK SMILES CC(C)[C@H]([NH2+]Cc1ccc2c(c1)OCO2)c1cn([C@H](CO)c2ccncc2F)nn1
REMARK SMILES IDX 16 1 17 2 18 3 29 4 30 5 4 7 2 8 1 9 3 10 5 11 6 14 7 15
REMARK SMILES IDX 8 16 12 17 9 18 11 19 10 20 13 21 15 22 14 23 19 24 20 25
REMARK SMILES IDX 21 26 22 28 23 29 27 30 24 31 26 32 25 33 28 34
REMARK H PARENT 17 6 5 12 5 13 21 27
ROOT
ATOM     1   C13 UNL     1      -0.294   1.778  -0.291  1.00  0.00     0.127 A   
ATOM     2   C14 UNL     1      -0.842   2.177  -1.487  1.00  0.00     0.046 A   
ATOM     3   N2  UNL     1       0.240   2.475  -2.273  1.00  0.00    -0.202 N   
ATOM     4   N4  UNL     1       1.389   2.195  -1.619  1.00  0.00    -0.075 NA  
ATOM     5   N5  UNL     1       1.074   1.782  -0.402  1.00  0.00    -0.132 NA  
ATOM     6   H18 UNL     1      -1.857   2.308  -1.837  1.00  0.00     0.083 HD  
ENDROOT
BRANCH   1   7
ATOM     7   C4  UNL     1      -0.934   1.328   0.982  1.00  0.00     0.117 C   
BRANCH   7   8
ATOM     8   C2  UNL     1      -1.245   2.476   1.977  1.00  0.00     0.037 C   
ATOM     9   C1  UNL     1      -2.311   3.431   1.426  1.00  0.00     0.014 C   
ATOM     10  C3  UNL     1      -0.014   3.275   2.420  1.00  0.00     0.014 C   
ENDBRANCH   7   8
BRANCH   7  11
ATOM     11  N1  UNL     1      -0.050   0.323   1.677  1.00  0.00     0.249 N   
ATOM     12  H9  UNL     1       0.910   0.698   1.648  1.00  0.00     0.199 HD  
ATOM     13  H10 UNL     1      -0.296   0.230   2.668  1.00  0.00     0.199 HD  
BRANCH  11  14
ATOM     14  C5  UNL     1      -0.013  -1.029   1.054  1.00  0.00     0.164 C   
BRANCH  14  15
ATOM     15  C6  UNL     1       0.939  -1.922   1.797  1.00  0.00    -0.002 A   
ATOM     16  C7  UNL     1       2.317  -1.915   1.475  1.00  0.00     0.012 A   
ATOM     17  C11 UNL     1       0.477  -2.728   2.851  1.00  0.00     0.045 A   
ATOM     18  C8  UNL     1       3.224  -2.710   2.184  1.00  0.00     0.037 A   
ATOM     19  C10 UNL     1       1.398  -3.499   3.530  1.00  0.00     0.109 A   
ATOM     20  C9  UNL     1       2.732  -3.491   3.206  1.00  0.00     0.108 A   
ATOM     21  O1  UNL     1       1.120  -4.329   4.569  1.00  0.00    -0.316 OA  
ATOM     22  O2  UNL     1       3.462  -4.319   3.998  1.00  0.00    -0.316 OA  
ATOM     23  C12 UNL     1       2.433  -4.866   4.849  1.00  0.00     0.337 C   
ENDBRANCH  14  15
ENDBRANCH  11  14
ENDBRANCH   7  11
ENDBRANCH   1   7
BRANCH   3  24
ATOM     24  C15 UNL     1       0.271   2.954  -3.657  1.00  0.00     0.158 C   
BRANCH  24  25
ATOM     25  C16 UNL     1      -0.224   4.413  -3.752  1.00  0.00     0.186 C   
BRANCH  25  26
ATOM     26  O3  UNL     1      -1.501   4.611  -3.148  1.00  0.00    -0.394 OA  
ATOM     27  H22 UNL     1      -1.841   5.467  -3.470  1.00  0.00     0.210 HD  
ENDBRANCH  25  26
ENDBRANCH  24  25
BRANCH  24  28
ATOM     28  C17 UNL     1      -0.333   1.909  -4.582  1.00  0.00     0.016 A   
ATOM     29  C18 UNL     1       0.357   0.696  -4.779  1.00  0.00     0.029 A   
ATOM     30  C21 UNL     1      -1.543   2.065  -5.258  1.00  0.00     0.146 A   
ATOM     31  C19 UNL     1      -0.190  -0.279  -5.603  1.00  0.00     0.111 A   
ATOM     32  C20 UNL     1      -2.016   1.036  -6.059  1.00  0.00     0.150 A   
ATOM     33  N3  UNL     1      -1.369  -0.138  -6.238  1.00  0.00    -0.262 NA  
ATOM     34  F1  UNL     1      -2.264   3.186  -5.162  1.00  0.00    -0.205 F   
ENDBRANCH  24  28
ENDBRANCH   3  24
TORSDOF 9
