REMARK SMILES CC(C)[C@H]([NH2+]Cc1ccc2c(c1)OCO2)c1cn([C@@H](CO)c2ccncc2F)nn1
REMARK SMILES IDX 16 1 17 2 18 3 29 4 30 5 4 7 2 8 1 9 3 10 5 11 6 14 7 15
REMARK SMILES IDX 8 16 12 17 9 18 11 19 10 20 13 21 15 22 14 23 19 24 20 25
REMARK SMILES IDX 21 26 22 28 23 29 27 30 24 31 26 32 25 33 28 34
REMARK H PARENT 17 6 5 12 5 13 21 27
ROOT
ATOM     1   C13 UNL     1       0.677  -0.634   0.485  1.00  0.00     0.127 A   
ATOM     2   C14 UNL     1       0.621   0.135   1.624  1.00  0.00     0.046 A   
ATOM     3   N2  UNL     1       1.698  -0.281   2.362  1.00  0.00    -0.202 N   
ATOM     4   N4  UNL     1       2.409  -1.206   1.683  1.00  0.00    -0.075 NA  
ATOM     5   N5  UNL     1       1.782  -1.445   0.543  1.00  0.00    -0.132 NA  
ATOM     6   H18 UNL     1      -0.061   0.897   1.977  1.00  0.00     0.083 HD  
ENDROOT
BRANCH   1   7
ATOM     7   C4  UNL     1      -0.220  -0.690  -0.711  1.00  0.00     0.117 C   
BRANCH   7   8
ATOM     8   C2  UNL     1      -1.546  -1.442  -0.412  1.00  0.00     0.037 C   
ATOM     9   C1  UNL     1      -2.583  -1.222  -1.520  1.00  0.00     0.014 C   
ATOM     10  C3  UNL     1      -1.366  -2.943  -0.159  1.00  0.00     0.014 C   
ENDBRANCH   7   8
BRANCH   7  11
ATOM     11  N1  UNL     1       0.495  -1.339  -1.873  1.00  0.00     0.249 N   
ATOM     12  H9  UNL     1       1.005  -2.141  -1.476  1.00  0.00     0.199 HD  
ATOM     13  H10 UNL     1      -0.168  -1.711  -2.557  1.00  0.00     0.199 HD  
BRANCH  11  14
ATOM     14  C5  UNL     1       1.499  -0.488  -2.578  1.00  0.00     0.164 C   
BRANCH  14  15
ATOM     15  C6  UNL     1       0.859   0.577  -3.426  1.00  0.00    -0.002 A   
ATOM     16  C7  UNL     1       0.203   0.233  -4.634  1.00  0.00     0.012 A   
ATOM     17  C11 UNL     1       0.882   1.919  -3.010  1.00  0.00     0.045 A   
ATOM     18  C8  UNL     1      -0.427   1.210  -5.412  1.00  0.00     0.037 A   
ATOM     19  C10 UNL     1       0.250   2.857  -3.800  1.00  0.00     0.109 A   
ATOM     20  C9  UNL     1      -0.388   2.512  -4.966  1.00  0.00     0.108 A   
ATOM     21  O1  UNL     1       0.173   4.188  -3.539  1.00  0.00    -0.316 OA  
ATOM     22  O2  UNL     1      -0.945   3.583  -5.589  1.00  0.00    -0.316 OA  
ATOM     23  C12 UNL     1      -0.563   4.652  -4.695  1.00  0.00     0.337 C   
ENDBRANCH  14  15
ENDBRANCH  11  14
ENDBRANCH   7  11
ENDBRANCH   1   7
BRANCH   3  24
ATOM     24  C15 UNL     1       2.125   0.144   3.698  1.00  0.00     0.158 C   
BRANCH  24  25
ATOM     25  C16 UNL     1       2.978   1.425   3.611  1.00  0.00     0.186 C   
BRANCH  25  26
ATOM     26  O3  UNL     1       2.273   2.520   3.021  1.00  0.00    -0.394 OA  
ATOM     27  H22 UNL     1       2.873   3.291   3.047  1.00  0.00     0.210 HD  
ENDBRANCH  25  26
ENDBRANCH  24  25
BRANCH  24  28
ATOM     28  C17 UNL     1       0.954   0.150   4.668  1.00  0.00     0.016 A   
ATOM     29  C18 UNL     1       0.350   1.313   5.165  1.00  0.00     0.029 A   
ATOM     30  C21 UNL     1       0.422  -1.075   5.086  1.00  0.00     0.146 A   
ATOM     31  C19 UNL     1      -0.731   1.196   6.033  1.00  0.00     0.111 A   
ATOM     32  C20 UNL     1      -0.657  -1.100   5.954  1.00  0.00     0.150 A   
ATOM     33  N3  UNL     1      -1.250   0.015   6.432  1.00  0.00    -0.262 NA  
ATOM     34  F1  UNL     1       0.945  -2.225   4.641  1.00  0.00    -0.205 F   
ENDBRANCH  24  28
ENDBRANCH   3  24
TORSDOF 9
