REMARK SMILES CC(C)C[C@H]([NH2+]Cc1ccc2c(c1)OCO2)c1cn(CCc2c(F)cncc2F)nn1
REMARK SMILES IDX 17 1 18 2 19 3 30 4 31 5 5 7 4 8 2 9 1 10 3 11 6 12 7 15
REMARK SMILES IDX 8 16 9 17 13 18 10 19 12 20 11 21 14 22 16 23 15 24 20 25
REMARK SMILES IDX 21 26 22 27 23 28 28 29 25 30 27 31 26 32 24 33 29 34
REMARK H PARENT 18 6 6 13 6 14
ROOT
ATOM     1   C14 UNL     1      -0.504   0.887  -0.106  1.00  0.00     0.127 A   
ATOM     2   C15 UNL     1      -1.499   1.840  -0.110  1.00  0.00     0.045 A   
ATOM     3   N2  UNL     1      -1.034   2.794  -0.972  1.00  0.00    -0.212 N   
ATOM     4   N4  UNL     1       0.141   2.426  -1.512  1.00  0.00    -0.076 NA  
ATOM     5   N5  UNL     1       0.488   1.269  -0.974  1.00  0.00    -0.132 NA  
ATOM     6   H20 UNL     1      -2.439   1.938   0.415  1.00  0.00     0.083 HD  
ENDROOT
BRANCH   1   7
ATOM     7   C5  UNL     1      -0.368  -0.406   0.638  1.00  0.00     0.114 C   
BRANCH   7   8
ATOM     8   C4  UNL     1       0.165  -0.159   2.063  1.00  0.00     0.064 C   
BRANCH   8   9
ATOM     9   C2  UNL     1       0.258  -1.395   2.984  1.00  0.00    -0.012 C   
ATOM     10  C1  UNL     1      -1.085  -2.108   3.144  1.00  0.00     0.007 C   
ATOM     11  C3  UNL     1       0.787  -0.973   4.358  1.00  0.00     0.007 C   
ENDBRANCH   8   9
ENDBRANCH   7   8
BRANCH   7  12
ATOM     12  N1  UNL     1       0.578  -1.319  -0.094  1.00  0.00     0.249 N   
ATOM     13  H11 UNL     1       1.375  -0.734  -0.391  1.00  0.00     0.199 HD  
ATOM     14  H12 UNL     1       0.970  -2.049   0.507  1.00  0.00     0.199 HD  
BRANCH  12  15
ATOM     15  C6  UNL     1       0.018  -1.958  -1.318  1.00  0.00     0.164 C   
BRANCH  15  16
ATOM     16  C7  UNL     1       1.099  -2.668  -2.081  1.00  0.00    -0.002 A   
ATOM     17  C8  UNL     1       1.919  -1.945  -2.982  1.00  0.00     0.012 A   
ATOM     18  C12 UNL     1       1.338  -4.035  -1.870  1.00  0.00     0.045 A   
ATOM     19  C9  UNL     1       2.955  -2.578  -3.676  1.00  0.00     0.037 A   
ATOM     20  C11 UNL     1       2.367  -4.628  -2.572  1.00  0.00     0.109 A   
ATOM     21  C10 UNL     1       3.152  -3.921  -3.449  1.00  0.00     0.108 A   
ATOM     22  O1  UNL     1       2.726  -5.936  -2.492  1.00  0.00    -0.316 OA  
ATOM     23  O2  UNL     1       4.104  -4.695  -4.033  1.00  0.00    -0.316 OA  
ATOM     24  C13 UNL     1       3.817  -5.980  -3.441  1.00  0.00     0.337 C   
ENDBRANCH  15  16
ENDBRANCH  12  15
ENDBRANCH   7  12
ENDBRANCH   1   7
BRANCH   3  25
ATOM     25  C16 UNL     1      -1.637   4.065  -1.319  1.00  0.00     0.139 C   
BRANCH  25  26
ATOM     26  C17 UNL     1      -1.028   5.238  -0.548  1.00  0.00     0.063 C   
BRANCH  26  27
ATOM     27  C18 UNL     1      -1.318   5.195   0.929  1.00  0.00     0.028 A   
ATOM     28  C19 UNL     1      -2.587   5.494   1.423  1.00  0.00     0.147 A   
ATOM     29  C22 UNL     1      -0.341   4.831   1.854  1.00  0.00     0.147 A   
ATOM     30  C20 UNL     1      -2.831   5.416   2.787  1.00  0.00     0.150 A   
ATOM     31  C21 UNL     1      -0.659   4.779   3.204  1.00  0.00     0.150 A   
ATOM     32  N3  UNL     1      -1.893   5.049   3.692  1.00  0.00    -0.259 NA  
ATOM     33  F1  UNL     1      -3.575   5.827   0.581  1.00  0.00    -0.205 F   
ATOM     34  F2  UNL     1       0.892   4.501   1.448  1.00  0.00    -0.205 F   
ENDBRANCH  26  27
ENDBRANCH  25  26
ENDBRANCH   3  25
TORSDOF 9
