REMARK SMILES CC(C)[C@H]([NH2+]Cc1ccc2c(c1)OCO2)c1cn(Cc2cccc(CN(C)C)c2)nn1
REMARK SMILES IDX 16 1 17 2 18 3 30 4 31 5 4 7 2 8 1 9 3 10 5 11 6 14 7 15
REMARK SMILES IDX 8 16 12 17 9 18 11 19 10 20 13 21 15 22 14 23 19 24 20 25
REMARK SMILES IDX 21 26 29 27 22 28 24 29 23 30 25 31 26 32 27 33 28 34
REMARK H PARENT 17 6 5 12 5 13
ROOT
ATOM     1   C13 UNL     1       2.063   1.375  -0.670  1.00  0.00     0.127 A   
ATOM     2   C14 UNL     1       3.052   0.876   0.146  1.00  0.00     0.046 A   
ATOM     3   N2  UNL     1       3.124   1.789   1.165  1.00  0.00    -0.208 N   
ATOM     4   N4  UNL     1       2.315   2.837   0.925  1.00  0.00    -0.076 NA  
ATOM     5   N5  UNL     1       1.635   2.581  -0.178  1.00  0.00    -0.132 NA  
ATOM     6   H18 UNL     1       3.608  -0.051   0.163  1.00  0.00     0.083 HD  
ENDROOT
BRANCH   1   7
ATOM     7   C4  UNL     1       1.343   0.746  -1.815  1.00  0.00     0.117 C   
BRANCH   7   8
ATOM     8   C2  UNL     1       1.798   1.292  -3.192  1.00  0.00     0.037 C   
ATOM     9   C1  UNL     1       1.407   2.750  -3.459  1.00  0.00     0.014 C   
ATOM     10  C3  UNL     1       1.288   0.411  -4.341  1.00  0.00     0.014 C   
ENDBRANCH   7   8
BRANCH   7  11
ATOM     11  N1  UNL     1      -0.142   0.914  -1.636  1.00  0.00     0.249 N   
ATOM     12  H9  UNL     1      -0.310   1.907  -1.419  1.00  0.00     0.199 HD  
ATOM     13  H10 UNL     1      -0.651   0.712  -2.501  1.00  0.00     0.199 HD  
BRANCH  11  14
ATOM     14  C5  UNL     1      -0.738   0.121  -0.518  1.00  0.00     0.164 C   
BRANCH  14  15
ATOM     15  C6  UNL     1      -2.231   0.289  -0.495  1.00  0.00    -0.002 A   
ATOM     16  C7  UNL     1      -2.829   1.221   0.385  1.00  0.00     0.012 A   
ATOM     17  C11 UNL     1      -3.038  -0.450  -1.377  1.00  0.00     0.045 A   
ATOM     18  C8  UNL     1      -4.218   1.396   0.409  1.00  0.00     0.037 A   
ATOM     19  C10 UNL     1      -4.402  -0.244  -1.336  1.00  0.00     0.109 A   
ATOM     20  C9  UNL     1      -4.976   0.644  -0.461  1.00  0.00     0.108 A   
ATOM     21  O1  UNL     1      -5.318  -0.866  -2.123  1.00  0.00    -0.316 OA  
ATOM     22  O2  UNL     1      -6.329   0.677  -0.574  1.00  0.00    -0.316 OA  
ATOM     23  C12 UNL     1      -6.545  -0.279  -1.633  1.00  0.00     0.337 C   
ENDBRANCH  14  15
ENDBRANCH  11  14
ENDBRANCH   7  11
ENDBRANCH   1   7
BRANCH   3  24
ATOM     24  C15 UNL     1       3.768   1.627   2.461  1.00  0.00     0.169 C   
BRANCH  24  25
ATOM     25  C16 UNL     1       3.192   0.429   3.185  1.00  0.00    -0.028 A   
ATOM     26  C17 UNL     1       4.026  -0.612   3.614  1.00  0.00     0.005 A   
ATOM     27  C24 UNL     1       1.808   0.331   3.417  1.00  0.00     0.010 A   
ATOM     28  C18 UNL     1       3.483  -1.737   4.236  1.00  0.00     0.001 A   
ATOM     29  C20 UNL     1       1.255  -0.802   4.028  1.00  0.00    -0.034 A   
ATOM     30  C19 UNL     1       2.108  -1.836   4.436  1.00  0.00     0.005 A   
BRANCH  29  31
ATOM     31  C21 UNL     1      -0.240  -0.900   4.247  1.00  0.00     0.119 C   
BRANCH  31  32
ATOM     32  N3  UNL     1      -1.008  -1.108   2.993  1.00  0.00    -0.305 NA  
ATOM     33  C22 UNL     1      -2.441  -0.957   3.300  1.00  0.00     0.105 C   
ATOM     34  C23 UNL     1      -0.777  -2.461   2.468  1.00  0.00     0.105 C   
ENDBRANCH  31  32
ENDBRANCH  29  31
ENDBRANCH  24  25
ENDBRANCH   3  24
TORSDOF 9
