REMARK SMILES CC(C)(C)[C@H]([NH2+]Cc1ccc2c(c1)OCO2)c1cn(Cc2cccnc2F)nn1
REMARK SMILES IDX 17 1 18 2 19 3 28 4 29 5 5 7 2 8 1 9 3 10 4 11 6 12 7 15
REMARK SMILES IDX 8 16 9 17 13 18 10 19 12 20 11 21 14 22 16 23 15 24 20 25
REMARK SMILES IDX 21 26 22 27 26 28 23 29 25 30 24 31 27 32
REMARK H PARENT 18 6 6 13 6 14
ROOT
ATOM     1   C14 UNL     1      -1.351   0.731  -0.856  1.00  0.00     0.127 A   
ATOM     2   C15 UNL     1      -0.791  -0.327  -1.533  1.00  0.00     0.046 A   
ATOM     3   N2  UNL     1       0.328   0.206  -2.112  1.00  0.00    -0.208 N   
ATOM     4   N4  UNL     1       0.467   1.506  -1.787  1.00  0.00    -0.076 NA  
ATOM     5   N5  UNL     1      -0.559   1.841  -1.023  1.00  0.00    -0.132 NA  
ATOM     6   H20 UNL     1      -1.067  -1.367  -1.648  1.00  0.00     0.083 HD  
ENDROOT
BRANCH   1   7
ATOM     7   C5  UNL     1      -2.555   0.821   0.035  1.00  0.00     0.120 C   
BRANCH   7   8
ATOM     8   C2  UNL     1      -3.877   1.231  -0.704  1.00  0.00     0.010 C   
ATOM     9   C1  UNL     1      -3.806   2.642  -1.325  1.00  0.00     0.017 C   
ATOM     10  C3  UNL     1      -4.187   0.215  -1.829  1.00  0.00     0.017 C   
ATOM     11  C4  UNL     1      -5.071   1.187   0.278  1.00  0.00     0.017 C   
ENDBRANCH   7   8
BRANCH   7  12
ATOM     12  N1  UNL     1      -2.239   1.800   1.154  1.00  0.00     0.250 N   
ATOM     13  H11 UNL     1      -3.006   2.455   1.312  1.00  0.00     0.199 HD  
ATOM     14  H12 UNL     1      -1.457   2.377   0.804  1.00  0.00     0.199 HD  
BRANCH  12  15
ATOM     15  C6  UNL     1      -1.828   1.204   2.458  1.00  0.00     0.164 C   
BRANCH  15  16
ATOM     16  C7  UNL     1      -0.602   0.336   2.376  1.00  0.00    -0.002 A   
ATOM     17  C8  UNL     1       0.678   0.911   2.181  1.00  0.00     0.012 A   
ATOM     18  C12 UNL     1      -0.726  -1.062   2.448  1.00  0.00     0.045 A   
ATOM     19  C9  UNL     1       1.815   0.105   2.044  1.00  0.00     0.037 A   
ATOM     20  C11 UNL     1       0.414  -1.826   2.310  1.00  0.00     0.109 A   
ATOM     21  C10 UNL     1       1.649  -1.261   2.112  1.00  0.00     0.108 A   
ATOM     22  O1  UNL     1       0.459  -3.184   2.344  1.00  0.00    -0.316 OA  
ATOM     23  O2  UNL     1       2.630  -2.192   2.002  1.00  0.00    -0.316 OA  
ATOM     24  C13 UNL     1       1.871  -3.416   2.142  1.00  0.00     0.337 C   
ENDBRANCH  15  16
ENDBRANCH  12  15
ENDBRANCH   7  12
ENDBRANCH   1   7
BRANCH   3  25
ATOM     25  C16 UNL     1       1.265  -0.434  -3.019  1.00  0.00     0.174 C   
BRANCH  25  26
ATOM     26  C17 UNL     1       2.317  -1.198  -2.276  1.00  0.00     0.027 A   
ATOM     27  C18 UNL     1       3.554  -0.637  -1.940  1.00  0.00     0.012 A   
ATOM     28  C21 UNL     1       2.085  -2.512  -1.890  1.00  0.00     0.217 A   
ATOM     29  C19 UNL     1       4.495  -1.413  -1.268  1.00  0.00     0.021 A   
ATOM     30  N3  UNL     1       2.975  -3.286  -1.237  1.00  0.00    -0.228 NA  
ATOM     31  C20 UNL     1       4.166  -2.720  -0.947  1.00  0.00     0.114 A   
ATOM     32  F1  UNL     1       0.899  -3.066  -2.180  1.00  0.00    -0.185 F   
ENDBRANCH  25  26
ENDBRANCH   3  25
TORSDOF 7
