REMARK SMILES CC(C)(C)[C@H]([NH2+]Cc1ccc2c(c1)OCO2)c1cn(Cc2ncc[nH]2)nn1
REMARK SMILES IDX 17 1 18 2 19 3 26 4 27 5 5 7 2 8 1 9 3 10 4 11 6 12 7 15
REMARK SMILES IDX 8 16 9 17 13 18 10 19 12 20 11 21 14 22 16 23 15 24 20 25
REMARK SMILES IDX 21 26 22 27 25 28 23 29 24 30
REMARK H PARENT 18 6 6 13 6 14 25 31
ROOT
ATOM     1   C14 UNL     1       1.273  -0.086   0.957  1.00  0.00     0.127 A   
ATOM     2   C15 UNL     1       1.990  -0.419  -0.169  1.00  0.00     0.046 A   
ATOM     3   N2  UNL     1       2.445  -1.682   0.091  1.00  0.00    -0.205 N   
ATOM     4   N5  UNL     1       2.084  -2.079   1.328  1.00  0.00    -0.076 NA  
ATOM     5   N6  UNL     1       1.359  -1.110   1.865  1.00  0.00    -0.132 NA  
ATOM     6   H20 UNL     1       2.143   0.062  -1.127  1.00  0.00     0.083 HD  
ENDROOT
BRANCH   1   7
ATOM     7   C5  UNL     1       0.369   1.077   1.220  1.00  0.00     0.120 C   
BRANCH   7   8
ATOM     8   C2  UNL     1       0.985   2.178   2.153  1.00  0.00     0.010 C   
ATOM     9   C1  UNL     1       1.277   1.672   3.579  1.00  0.00     0.017 C   
ATOM     10  C3  UNL     1       2.306   2.701   1.544  1.00  0.00     0.017 C   
ATOM     11  C4  UNL     1       0.028   3.388   2.261  1.00  0.00     0.017 C   
ENDBRANCH   7   8
BRANCH   7  12
ATOM     12  N1  UNL     1      -0.942   0.567   1.791  1.00  0.00     0.250 N   
ATOM     13  H11 UNL     1      -1.538   1.344   2.081  1.00  0.00     0.199 HD  
ATOM     14  H12 UNL     1      -0.703   0.024   2.631  1.00  0.00     0.199 HD  
BRANCH  12  15
ATOM     15  C6  UNL     1      -1.744  -0.339   0.907  1.00  0.00     0.164 C   
BRANCH  15  16
ATOM     16  C7  UNL     1      -2.171   0.309  -0.381  1.00  0.00    -0.002 A   
ATOM     17  C8  UNL     1      -1.598  -0.108  -1.608  1.00  0.00     0.012 A   
ATOM     18  C12 UNL     1      -3.113   1.351  -0.377  1.00  0.00     0.045 A   
ATOM     19  C9  UNL     1      -1.952   0.506  -2.814  1.00  0.00     0.037 A   
ATOM     20  C11 UNL     1      -3.441   1.935  -1.584  1.00  0.00     0.109 A   
ATOM     21  C10 UNL     1      -2.878   1.525  -2.768  1.00  0.00     0.108 A   
ATOM     22  O1  UNL     1      -4.324   2.953  -1.755  1.00  0.00    -0.316 OA  
ATOM     23  O2  UNL     1      -3.335   2.233  -3.832  1.00  0.00    -0.316 OA  
ATOM     24  C13 UNL     1      -4.279   3.117  -3.192  1.00  0.00     0.337 C   
ENDBRANCH  15  16
ENDBRANCH  12  15
ENDBRANCH   7  12
ENDBRANCH   1   7
BRANCH   3  25
ATOM     25  C16 UNL     1       3.116  -2.593  -0.818  1.00  0.00     0.206 C   
BRANCH  25  26
ATOM     26  C17 UNL     1       2.099  -3.255  -1.683  1.00  0.00     0.117 A   
ATOM     27  N3  UNL     1       1.268  -2.660  -2.521  1.00  0.00    -0.243 NA  
ATOM     28  N4  UNL     1       1.902  -4.617  -1.690  1.00  0.00    -0.307 N   
ATOM     29  C18 UNL     1       0.538  -3.667  -3.099  1.00  0.00     0.128 A   
ATOM     30  C19 UNL     1       0.908  -4.887  -2.589  1.00  0.00     0.093 A   
ATOM     31  H25 UNL     1       2.401  -5.300  -1.131  1.00  0.00     0.154 HD  
ENDBRANCH  25  26
ENDBRANCH   3  25
TORSDOF 7
