REMARK SMILES Cc1cc(O)c(Cn2cc([C@H](CC(C)C)[NH2+]Cc3ccc4c(c3)OCO4)nn2)cc1C
REMARK SMILES IDX 8 1 9 2 10 3 27 4 28 5 7 7 6 8 2 9 3 10 30 11 4 12 29 13
REMARK SMILES IDX 1 14 31 15 5 16 11 18 12 19 13 20 14 21 15 22 16 23 17 26
REMARK SMILES IDX 18 27 19 28 23 29 20 30 22 31 21 32 24 33 26 34 25 35
REMARK H PARENT 9 6 5 17 16 24 16 25
ROOT
ATOM     1   N1  UNL     1      -2.028  -0.920  -0.751  1.00  0.00    -0.208 N   
ATOM     2   C7  UNL     1      -1.808   0.170   0.047  1.00  0.00     0.046 A   
ATOM     3   C8  UNL     1      -1.193   1.074  -0.786  1.00  0.00     0.127 A   
ATOM     4   N3  UNL     1      -1.072   0.528  -2.039  1.00  0.00    -0.132 NA  
ATOM     5   N4  UNL     1      -1.597  -0.686  -2.009  1.00  0.00    -0.076 NA  
ATOM     6   H8  UNL     1      -2.086   0.180   1.092  1.00  0.00     0.083 HD  
ENDROOT
BRANCH   1   7
ATOM     7   C6  UNL     1      -2.716  -2.153  -0.415  1.00  0.00     0.172 C   
BRANCH   7   8
ATOM     8   C5  UNL     1      -1.758  -3.214   0.057  1.00  0.00     0.002 A   
ATOM     9   C2  UNL     1       0.002  -5.251   0.919  1.00  0.00    -0.046 A   
ATOM     10  C3  UNL     1      -0.458  -4.273   1.814  1.00  0.00     0.037 A   
ATOM     11  C23 UNL     1      -0.416  -5.205  -0.425  1.00  0.00    -0.048 A   
ATOM     12  C4  UNL     1      -1.327  -3.272   1.383  1.00  0.00     0.076 A   
ATOM     13  C22 UNL     1      -1.283  -4.181  -0.842  1.00  0.00     0.011 A   
ATOM     14  C1  UNL     1       0.924  -6.331   1.417  1.00  0.00     0.045 C   
ATOM     15  C24 UNL     1       0.047  -6.230  -1.426  1.00  0.00     0.044 C   
BRANCH  12  16
ATOM     16  O1  UNL     1      -1.780  -2.331   2.266  1.00  0.00    -0.361 OA  
ATOM     17  H5  UNL     1      -1.507  -2.605   3.160  1.00  0.00     0.218 HD  
ENDBRANCH  12  16
ENDBRANCH   7   8
ENDBRANCH   1   7
BRANCH   3  18
ATOM     18  C9  UNL     1      -0.643   2.437  -0.530  1.00  0.00     0.114 C   
BRANCH  18  19
ATOM     19  C10 UNL     1      -1.679   3.526  -0.867  1.00  0.00     0.064 C   
BRANCH  19  20
ATOM     20  C11 UNL     1      -1.273   4.971  -0.503  1.00  0.00    -0.012 C   
ATOM     21  C12 UNL     1      -2.357   5.943  -0.978  1.00  0.00     0.007 C   
ATOM     22  C13 UNL     1      -1.045   5.152   0.999  1.00  0.00     0.007 C   
ENDBRANCH  19  20
ENDBRANCH  18  19
BRANCH  18  23
ATOM     23  N2  UNL     1       0.590   2.643  -1.381  1.00  0.00     0.249 N   
ATOM     24  H19 UNL     1       0.555   3.537  -1.877  1.00  0.00     0.199 HD  
ATOM     25  H20 UNL     1       0.538   1.924  -2.122  1.00  0.00     0.199 HD  
BRANCH  23  26
ATOM     26  C14 UNL     1       1.898   2.500  -0.686  1.00  0.00     0.164 C   
BRANCH  26  27
ATOM     27  C15 UNL     1       2.164   1.110  -0.181  1.00  0.00    -0.002 A   
ATOM     28  C16 UNL     1       2.065   0.814   1.200  1.00  0.00     0.012 A   
ATOM     29  C20 UNL     1       2.488   0.084  -1.085  1.00  0.00     0.045 A   
ATOM     30  C17 UNL     1       2.281  -0.485   1.674  1.00  0.00     0.037 A   
ATOM     31  C19 UNL     1       2.702  -1.182  -0.584  1.00  0.00     0.109 A   
ATOM     32  C18 UNL     1       2.600  -1.461   0.757  1.00  0.00     0.108 A   
ATOM     33  O2  UNL     1       3.040  -2.274  -1.318  1.00  0.00    -0.316 OA  
ATOM     34  O3  UNL     1       2.857  -2.765   1.037  1.00  0.00    -0.316 OA  
ATOM     35  C21 UNL     1       3.145  -3.276  -0.283  1.00  0.00     0.337 C   
ENDBRANCH  26  27
ENDBRANCH  23  26
ENDBRANCH  18  23
ENDBRANCH   3  18
TORSDOF 9
