REMARK SMILES CCn1cc(CCn2cc([C@@H]([NH2+]Cc3ccc4c(c3)OCO4)C(C)(C)C)nn2)cn1
REMARK SMILES IDX 8 1 9 2 10 3 27 4 28 5 7 7 6 8 5 9 3 10 4 11 30 12 29 13
REMARK SMILES IDX 2 14 1 15 11 16 12 17 13 20 14 21 15 22 19 23 16 24 18 25
REMARK SMILES IDX 17 26 20 27 22 28 21 29 23 30 24 31 25 32 26 33
REMARK H PARENT 9 6 12 18 12 19
ROOT
ATOM     1   N2  UNL     1       0.164   3.840   0.910  1.00  0.00    -0.212 N   
ATOM     2   C7  UNL     1       0.566   3.137  -0.196  1.00  0.00     0.045 A   
ATOM     3   C8  UNL     1       1.259   2.063   0.322  1.00  0.00     0.127 A   
ATOM     4   N4  UNL     1       1.364   2.229   1.683  1.00  0.00    -0.132 NA  
ATOM     5   N5  UNL     1       0.695   3.318   2.028  1.00  0.00    -0.076 NA  
ATOM     6   H11 UNL     1       0.209   3.394  -1.181  1.00  0.00     0.083 HD  
ENDROOT
BRANCH   1   7
ATOM     7   C6  UNL     1      -0.958   4.759   0.984  1.00  0.00     0.139 C   
BRANCH   7   8
ATOM     8   C5  UNL     1      -2.260   4.064   1.425  1.00  0.00     0.060 C   
BRANCH   8   9
ATOM     9   C4  UNL     1      -2.518   2.794   0.675  1.00  0.00    -0.011 A   
ATOM     10  N1  UNL     1      -3.015   1.269  -0.826  1.00  0.00    -0.233 N   
ATOM     11  C3  UNL     1      -3.124   2.603  -0.547  1.00  0.00     0.101 A   
ATOM     12  N6  UNL     1      -2.228   0.606   0.062  1.00  0.00    -0.190 NA  
ATOM     13  C22 UNL     1      -2.102   1.496   1.056  1.00  0.00     0.136 A   
BRANCH  10  14
ATOM     14  C2  UNL     1      -3.617   0.567  -1.945  1.00  0.00     0.128 C   
ATOM     15  C1  UNL     1      -2.606   0.223  -3.023  1.00  0.00     0.027 C   
ENDBRANCH  10  14
ENDBRANCH   8   9
ENDBRANCH   7   8
ENDBRANCH   1   7
BRANCH   3  16
ATOM     16  C9  UNL     1       1.718   0.767  -0.283  1.00  0.00     0.120 C   
BRANCH  16  17
ATOM     17  N3  UNL     1       0.600  -0.257  -0.185  1.00  0.00     0.250 N   
ATOM     18  H13 UNL     1       0.636  -0.935  -0.947  1.00  0.00     0.199 HD  
ATOM     19  H14 UNL     1      -0.318   0.222  -0.283  1.00  0.00     0.199 HD  
BRANCH  17  20
ATOM     20  C10 UNL     1       0.524  -1.015   1.100  1.00  0.00     0.164 C   
BRANCH  20  21
ATOM     21  C11 UNL     1       1.589  -2.071   1.210  1.00  0.00    -0.002 A   
ATOM     22  C12 UNL     1       1.481  -3.275   0.471  1.00  0.00     0.012 A   
ATOM     23  C16 UNL     1       2.717  -1.858   2.021  1.00  0.00     0.045 A   
ATOM     24  C13 UNL     1       2.483  -4.249   0.532  1.00  0.00     0.037 A   
ATOM     25  C15 UNL     1       3.688  -2.837   2.057  1.00  0.00     0.109 A   
ATOM     26  C14 UNL     1       3.575  -3.998   1.333  1.00  0.00     0.108 A   
ATOM     27  O1  UNL     1       4.838  -2.784   2.778  1.00  0.00    -0.316 OA  
ATOM     28  O2  UNL     1       4.639  -4.824   1.509  1.00  0.00    -0.316 OA  
ATOM     29  C17 UNL     1       5.427  -4.062   2.450  1.00  0.00     0.337 C   
ENDBRANCH  20  21
ENDBRANCH  17  20
ENDBRANCH  16  17
BRANCH  16  30
ATOM     30  C18 UNL     1       2.308   0.812  -1.734  1.00  0.00     0.010 C   
ATOM     31  C19 UNL     1       3.362   1.936  -1.855  1.00  0.00     0.017 C   
ATOM     32  C20 UNL     1       1.249   1.003  -2.836  1.00  0.00     0.017 C   
ATOM     33  C21 UNL     1       3.046  -0.520  -2.028  1.00  0.00     0.017 C   
ENDBRANCH  16  30
ENDBRANCH   3  16
TORSDOF 9
