REMARK SMILES Cc1cc(Cn2cc([C@@H]([NH2+]Cc3ccc4c(c3)OCO4)C3CCCC3)nn2)cc(C)c1O
REMARK SMILES IDX 6 1 7 2 8 3 26 4 27 5 5 7 4 8 2 9 3 10 31 11 29 12 28 13
REMARK SMILES IDX 1 14 30 15 32 16 9 18 10 19 11 22 12 23 13 24 17 25 14 26
REMARK SMILES IDX 16 27 15 28 18 29 20 30 19 31 21 32 22 33 25 34 23 35 24 36
REMARK H PARENT 7 6 32 17 10 20 10 21
ROOT
ATOM     1   N1  UNL     1      -0.064   1.752   3.256  1.00  0.00    -0.208 N   
ATOM     2   C6  UNL     1      -0.969   1.623   2.237  1.00  0.00     0.046 A   
ATOM     3   C7  UNL     1      -1.363   0.306   2.310  1.00  0.00     0.127 A   
ATOM     4   N3  UNL     1      -0.756  -0.289   3.386  1.00  0.00    -0.132 NA  
ATOM     5   N4  UNL     1       0.042   0.602   3.952  1.00  0.00    -0.076 NA  
ATOM     6   H7  UNL     1      -1.178   2.424   1.541  1.00  0.00     0.083 HD  
ENDROOT
BRANCH   1   7
ATOM     7   C5  UNL     1       0.824   2.872   3.523  1.00  0.00     0.169 C   
BRANCH   7   8
ATOM     8   C4  UNL     1       1.878   2.956   2.444  1.00  0.00    -0.028 A   
ATOM     9   C2  UNL     1       2.630   3.820   0.292  1.00  0.00    -0.020 A   
ATOM     10  C3  UNL     1       1.699   3.800   1.339  1.00  0.00     0.011 A   
ATOM     11  C25 UNL     1       3.764   3.001   0.376  1.00  0.00     0.077 A   
ATOM     12  C23 UNL     1       3.972   2.150   1.470  1.00  0.00    -0.020 A   
ATOM     13  C22 UNL     1       3.017   2.137   2.499  1.00  0.00     0.011 A   
ATOM     14  C1  UNL     1       2.429   4.737  -0.882  1.00  0.00     0.047 C   
ATOM     15  C24 UNL     1       5.175   1.258   1.572  1.00  0.00     0.047 C   
BRANCH  11  16
ATOM     16  O3  UNL     1       4.652   3.063  -0.662  1.00  0.00    -0.360 OA  
ATOM     17  H31 UNL     1       5.514   2.721  -0.372  1.00  0.00     0.218 HD  
ENDBRANCH  11  16
ENDBRANCH   7   8
ENDBRANCH   1   7
BRANCH   3  18
ATOM     18  C8  UNL     1      -2.188  -0.512   1.375  1.00  0.00     0.117 C   
BRANCH  18  19
ATOM     19  N2  UNL     1      -1.508  -1.842   1.114  1.00  0.00     0.249 N   
ATOM     20  H9  UNL     1      -2.103  -2.437   0.532  1.00  0.00     0.199 HD  
ATOM     21  H10 UNL     1      -1.409  -2.300   2.029  1.00  0.00     0.199 HD  
BRANCH  19  22
ATOM     22  C9  UNL     1      -0.143  -1.784   0.502  1.00  0.00     0.164 C   
BRANCH  22  23
ATOM     23  C10 UNL     1      -0.117  -1.122  -0.847  1.00  0.00    -0.002 A   
ATOM     24  C11 UNL     1       0.485   0.151  -1.007  1.00  0.00     0.012 A   
ATOM     25  C15 UNL     1      -0.705  -1.752  -1.958  1.00  0.00     0.045 A   
ATOM     26  C12 UNL     1       0.502   0.787  -2.253  1.00  0.00     0.037 A   
ATOM     27  C14 UNL     1      -0.676  -1.094  -3.170  1.00  0.00     0.109 A   
ATOM     28  C13 UNL     1      -0.085   0.137  -3.316  1.00  0.00     0.108 A   
ATOM     29  O1  UNL     1      -1.180  -1.569  -4.338  1.00  0.00    -0.316 OA  
ATOM     30  O2  UNL     1      -0.160   0.599  -4.591  1.00  0.00    -0.316 OA  
ATOM     31  C16 UNL     1      -0.830  -0.499  -5.246  1.00  0.00     0.337 C   
ENDBRANCH  22  23
ENDBRANCH  19  22
ENDBRANCH  18  19
BRANCH  18  32
ATOM     32  C17 UNL     1      -3.597  -0.790   1.933  1.00  0.00     0.043 C   
ATOM     33  C18 UNL     1      -4.417   0.482   2.168  1.00  0.00     0.010 C   
ATOM     34  C21 UNL     1      -4.505  -1.572   0.978  1.00  0.00     0.010 C   
ATOM     35  C19 UNL     1      -5.848  -0.021   2.300  1.00  0.00     0.001 C   
ATOM     36  C20 UNL     1      -5.924  -1.295   1.465  1.00  0.00     0.001 C   
ENDBRANCH  18  32
ENDBRANCH   3  18
TORSDOF 8
