REMARK SMILES CC(C)[C@H]([NH2+]Cc1ccc2c(c1)OCO2)c1cn(Cc2cccc(C(C)(F)F)n2)nn1
REMARK SMILES IDX 16 1 17 2 18 3 30 4 31 5 4 7 2 8 1 9 3 10 5 11 6 14 7 15
REMARK SMILES IDX 8 16 12 17 9 18 11 19 10 20 13 21 15 22 14 23 19 24 20 25
REMARK SMILES IDX 21 26 29 27 22 28 24 29 23 30 25 31 26 32 27 33 28 34
REMARK H PARENT 17 6 5 12 5 13
ROOT
ATOM     1   C13 UNL     1       0.175  -1.096   1.784  1.00  0.00     0.127 A   
ATOM     2   C14 UNL     1      -0.386  -0.049   2.477  1.00  0.00     0.046 A   
ATOM     3   N2  UNL     1       0.643   0.431   3.242  1.00  0.00    -0.206 N   
ATOM     4   N4  UNL     1       1.757  -0.308   3.066  1.00  0.00    -0.076 NA  
ATOM     5   N5  UNL     1       1.484  -1.244   2.171  1.00  0.00    -0.132 NA  
ATOM     6   H18 UNL     1      -1.358   0.424   2.459  1.00  0.00     0.083 HD  
ENDROOT
BRANCH   1   7
ATOM     7   C4  UNL     1      -0.380  -1.950   0.692  1.00  0.00     0.117 C   
BRANCH   7   8
ATOM     8   C2  UNL     1      -1.003  -3.266   1.228  1.00  0.00     0.037 C   
ATOM     9   C1  UNL     1       0.015  -4.263   1.794  1.00  0.00     0.014 C   
ATOM     10  C3  UNL     1      -1.861  -3.958   0.161  1.00  0.00     0.014 C   
ENDBRANCH   7   8
BRANCH   7  11
ATOM     11  N1  UNL     1       0.687  -2.252  -0.334  1.00  0.00     0.249 N   
ATOM     12  H9  UNL     1       0.383  -2.995  -0.967  1.00  0.00     0.199 HD  
ATOM     13  H10 UNL     1       1.500  -2.605   0.190  1.00  0.00     0.199 HD  
BRANCH  11  14
ATOM     14  C5  UNL     1       1.166  -1.089  -1.143  1.00  0.00     0.164 C   
BRANCH  14  15
ATOM     15  C6  UNL     1       0.104  -0.520  -2.041  1.00  0.00    -0.002 A   
ATOM     16  C7  UNL     1      -0.477   0.737  -1.747  1.00  0.00     0.012 A   
ATOM     17  C11 UNL     1      -0.344  -1.243  -3.160  1.00  0.00     0.045 A   
ATOM     18  C8  UNL     1      -1.492   1.267  -2.551  1.00  0.00     0.037 A   
ATOM     19  C10 UNL     1      -1.347  -0.693  -3.930  1.00  0.00     0.109 A   
ATOM     20  C9  UNL     1      -1.906   0.526  -3.635  1.00  0.00     0.108 A   
ATOM     21  O1  UNL     1      -1.895  -1.262  -5.036  1.00  0.00    -0.316 OA  
ATOM     22  O2  UNL     1      -2.876   0.879  -4.518  1.00  0.00    -0.316 OA  
ATOM     23  C12 UNL     1      -2.850  -0.246  -5.421  1.00  0.00     0.337 C   
ENDBRANCH  14  15
ENDBRANCH  11  14
ENDBRANCH   7  11
ENDBRANCH   1   7
BRANCH   3  24
ATOM     24  C15 UNL     1       0.648   1.597   4.105  1.00  0.00     0.190 C   
BRANCH  24  25
ATOM     25  C16 UNL     1       0.938   2.831   3.292  1.00  0.00     0.060 A   
ATOM     26  C17 UNL     1       2.139   3.516   3.441  1.00  0.00     0.025 A   
ATOM     27  N3  UNL     1      -0.015   3.223   2.403  1.00  0.00    -0.250 NA  
ATOM     28  C18 UNL     1       2.372   4.639   2.654  1.00  0.00     0.004 A   
ATOM     29  C20 UNL     1       0.227   4.319   1.628  1.00  0.00     0.109 A   
ATOM     30  C19 UNL     1       1.410   5.046   1.735  1.00  0.00     0.030 A   
BRANCH  29  31
ATOM     31  C21 UNL     1      -0.832   4.730   0.613  1.00  0.00     0.286 C   
ATOM     32  C22 UNL     1      -2.067   5.288   1.298  1.00  0.00     0.094 C   
ATOM     33  F1  UNL     1      -0.384   5.670  -0.272  1.00  0.00    -0.200 F   
ATOM     34  F2  UNL     1      -1.224   3.673  -0.165  1.00  0.00    -0.200 F   
ENDBRANCH  29  31
ENDBRANCH  24  25
ENDBRANCH   3  24
TORSDOF 8
