REMARK SMILES Cc1nn(C(C)C)c(C)c1Cn1cc([C@@H]([NH2+]Cc2ccc3c(c2)OCO3)C(C)(C)C)nn1
REMARK SMILES IDX 12 1 13 2 14 3 31 4 32 5 11 7 10 8 2 9 3 10 4 11 8 12 1 13
REMARK SMILES IDX 9 14 5 15 6 16 7 17 15 18 16 19 17 22 18 23 19 24 23 25
REMARK SMILES IDX 20 26 22 27 21 28 24 29 26 30 25 31 27 32 28 33 29 34 30 35
REMARK H PARENT 13 6 16 20 16 21
ROOT
ATOM     1   N3  UNL     1      -0.558  -0.383   2.942  1.00  0.00    -0.208 N   
ATOM     2   C10 UNL     1      -0.644   0.507   1.905  1.00  0.00     0.046 A   
ATOM     3   C11 UNL     1      -1.917   0.320   1.412  1.00  0.00     0.127 A   
ATOM     4   N5  UNL     1      -2.562  -0.620   2.175  1.00  0.00    -0.132 NA  
ATOM     5   N6  UNL     1      -1.725  -1.036   3.111  1.00  0.00    -0.076 NA  
ATOM     6   H16 UNL     1       0.198   1.108   1.587  1.00  0.00     0.083 HD  
ENDROOT
BRANCH   1   7
ATOM     7   C9  UNL     1       0.626  -0.766   3.696  1.00  0.00     0.173 C   
BRANCH   7   8
ATOM     8   C8  UNL     1       1.597  -1.448   2.789  1.00  0.00     0.013 A   
ATOM     9   C2  UNL     1       1.438  -2.727   2.185  1.00  0.00     0.062 A   
ATOM     10  N1  UNL     1       2.445  -3.007   1.356  1.00  0.00    -0.186 NA  
ATOM     11  N2  UNL     1       3.312  -1.990   1.512  1.00  0.00    -0.227 N   
ATOM     12  C6  UNL     1       2.824  -0.992   2.324  1.00  0.00     0.032 A   
ATOM     13  C1  UNL     1       0.323  -3.697   2.337  1.00  0.00     0.069 C   
ATOM     14  C7  UNL     1       3.562   0.272   2.587  1.00  0.00     0.064 C   
BRANCH  11  15
ATOM     15  C3  UNL     1       4.596  -2.035   0.810  1.00  0.00     0.092 C   
ATOM     16  C4  UNL     1       4.408  -1.803  -0.688  1.00  0.00     0.030 C   
ATOM     17  C5  UNL     1       5.350  -3.338   1.085  1.00  0.00     0.030 C   
ENDBRANCH  11  15
ENDBRANCH   7   8
ENDBRANCH   1   7
BRANCH   3  18
ATOM     18  C12 UNL     1      -2.573   0.848   0.175  1.00  0.00     0.120 C   
BRANCH  18  19
ATOM     19  N4  UNL     1      -3.264  -0.299  -0.539  1.00  0.00     0.250 N   
ATOM     20  H18 UNL     1      -3.874  -0.748   0.159  1.00  0.00     0.199 HD  
ATOM     21  H19 UNL     1      -3.860   0.042  -1.294  1.00  0.00     0.199 HD  
BRANCH  19  22
ATOM     22  C13 UNL     1      -2.373  -1.374  -1.083  1.00  0.00     0.164 C   
BRANCH  22  23
ATOM     23  C14 UNL     1      -1.447  -0.883  -2.161  1.00  0.00    -0.002 A   
ATOM     24  C15 UNL     1      -1.957  -0.504  -3.427  1.00  0.00     0.012 A   
ATOM     25  C19 UNL     1      -0.068  -0.770  -1.907  1.00  0.00     0.045 A   
ATOM     26  C16 UNL     1      -1.110  -0.007  -4.423  1.00  0.00     0.037 A   
ATOM     27  C18 UNL     1       0.738  -0.272  -2.910  1.00  0.00     0.109 A   
ATOM     28  C17 UNL     1       0.232   0.099  -4.131  1.00  0.00     0.108 A   
ATOM     29  O1  UNL     1       2.080  -0.079  -2.825  1.00  0.00    -0.316 OA  
ATOM     30  O2  UNL     1       1.193   0.563  -4.972  1.00  0.00    -0.316 OA  
ATOM     31  C20 UNL     1       2.373   0.404  -4.155  1.00  0.00     0.337 C   
ENDBRANCH  22  23
ENDBRANCH  19  22
ENDBRANCH  18  19
BRANCH  18  32
ATOM     32  C21 UNL     1      -3.580   2.024   0.429  1.00  0.00     0.010 C   
ATOM     33  C22 UNL     1      -4.802   1.603   1.268  1.00  0.00     0.017 C   
ATOM     34  C23 UNL     1      -2.863   3.180   1.164  1.00  0.00     0.017 C   
ATOM     35  C24 UNL     1      -4.090   2.593  -0.916  1.00  0.00     0.017 C   
ENDBRANCH  18  32
ENDBRANCH   3  18
TORSDOF 8
