REMARK SMILES CC(C)[C@H]([NH2+]Cc1ccc2c(c1)OCO2)c1cn(CC(=O)c2cccc(Cl)c2)nn1
REMARK SMILES IDX 16 1 17 2 18 3 29 4 30 5 4 7 2 8 1 9 3 10 5 11 6 14 7 15
REMARK SMILES IDX 8 16 12 17 9 18 11 19 10 20 13 21 15 22 14 23 19 24 20 25
REMARK SMILES IDX 21 26 22 27 23 28 28 29 24 30 26 31 25 32 27 33
REMARK H PARENT 17 6 5 12 5 13
ROOT
ATOM     1   C13 UNL     1       0.558  -1.499   1.716  1.00  0.00     0.127 A   
ATOM     2   C14 UNL     1       0.701  -2.379   0.668  1.00  0.00     0.046 A   
ATOM     3   N2  UNL     1      -0.525  -2.373   0.066  1.00  0.00    -0.204 N   
ATOM     4   N3  UNL     1      -1.386  -1.578   0.727  1.00  0.00    -0.076 NA  
ATOM     5   N4  UNL     1      -0.731  -1.029   1.737  1.00  0.00    -0.132 NA  
ATOM     6   H18 UNL     1       1.535  -2.945   0.275  1.00  0.00     0.083 HD  
ENDROOT
BRANCH   1   7
ATOM     7   C4  UNL     1       1.555  -0.977   2.699  1.00  0.00     0.117 C   
BRANCH   7   8
ATOM     8   C2  UNL     1       1.587  -1.819   4.002  1.00  0.00     0.037 C   
ATOM     9   C1  UNL     1       2.818  -1.487   4.856  1.00  0.00     0.014 C   
ATOM     10  C3  UNL     1       0.319  -1.704   4.857  1.00  0.00     0.014 C   
ENDBRANCH   7   8
BRANCH   7  11
ATOM     11  N1  UNL     1       1.279   0.475   3.011  1.00  0.00     0.249 N   
ATOM     12  H9  UNL     1       0.258   0.599   2.914  1.00  0.00     0.199 HD  
ATOM     13  H10 UNL     1       1.500   0.687   3.986  1.00  0.00     0.199 HD  
BRANCH  11  14
ATOM     14  C5  UNL     1       1.955   1.478   2.138  1.00  0.00     0.164 C   
BRANCH  14  15
ATOM     15  C6  UNL     1       1.366   1.582   0.760  1.00  0.00    -0.002 A   
ATOM     16  C7  UNL     1       1.992   0.954  -0.343  1.00  0.00     0.012 A   
ATOM     17  C11 UNL     1       0.166   2.288   0.562  1.00  0.00     0.045 A   
ATOM     18  C8  UNL     1       1.431   1.023  -1.624  1.00  0.00     0.037 A   
ATOM     19  C10 UNL     1      -0.353   2.346  -0.714  1.00  0.00     0.109 A   
ATOM     20  C9  UNL     1       0.259   1.730  -1.777  1.00  0.00     0.108 A   
ATOM     21  O1  UNL     1      -1.491   2.996  -1.075  1.00  0.00    -0.316 OA  
ATOM     22  O2  UNL     1      -0.416   1.912  -2.941  1.00  0.00    -0.316 OA  
ATOM     23  C12 UNL     1      -1.500   2.757  -2.501  1.00  0.00     0.337 C   
ENDBRANCH  14  15
ENDBRANCH  11  14
ENDBRANCH   7  11
ENDBRANCH   1   7
BRANCH   3  24
ATOM     24  C15 UNL     1      -0.929  -3.052  -1.143  1.00  0.00     0.214 C   
BRANCH  24  25
ATOM     25  C16 UNL     1      -0.497  -2.256  -2.348  1.00  0.00     0.182 C   
ATOM     26  O3  UNL     1       0.692  -2.200  -2.668  1.00  0.00    -0.292 OA  
BRANCH  25  27
ATOM     27  C17 UNL     1      -1.511  -1.526  -3.162  1.00  0.00     0.021 A   
ATOM     28  C18 UNL     1      -2.775  -1.182  -2.663  1.00  0.00     0.012 A   
ATOM     29  C22 UNL     1      -1.162  -1.160  -4.469  1.00  0.00     0.032 A   
ATOM     30  C19 UNL     1      -3.689  -0.505  -3.476  1.00  0.00     0.002 A   
ATOM     31  C21 UNL     1      -2.077  -0.478  -5.269  1.00  0.00     0.041 A   
ATOM     32  C20 UNL     1      -3.341  -0.155  -4.780  1.00  0.00     0.020 A   
ATOM     33  CL1 UNL     1      -1.642  -0.029  -6.871  1.00  0.00    -0.084 Cl  
ENDBRANCH  25  27
ENDBRANCH  24  25
ENDBRANCH   3  24
TORSDOF 8
