REMARK SMILES Fc1ccc(Cn2cc([C@@H]([NH2+]Cc3ccc4c(c3)OCO4)C3CCCC3)nn2)cc1
REMARK SMILES IDX 7 1 8 2 9 3 27 4 28 5 6 7 5 8 2 9 3 10 30 11 4 12 29 13 1 14
REMARK SMILES IDX 10 15 11 16 12 19 13 20 14 21 18 22 15 23 17 24 16 25 19 26
REMARK SMILES IDX 21 27 20 28 22 29 23 30 26 31 24 32 25 33
REMARK H PARENT 8 6 11 17 11 18
ROOT
ATOM     1   N1  UNL     1      -0.240   1.751  -3.103  1.00  0.00    -0.208 N   
ATOM     2   C6  UNL     1       0.857   1.465  -2.336  1.00  0.00     0.046 A   
ATOM     3   C7  UNL     1       0.416   0.486  -1.473  1.00  0.00     0.127 A   
ATOM     4   N3  UNL     1      -0.906   0.224  -1.733  1.00  0.00    -0.132 NA  
ATOM     5   N4  UNL     1      -1.296   1.004  -2.727  1.00  0.00    -0.076 NA  
ATOM     6   H5  UNL     1       1.802   1.975  -2.466  1.00  0.00     0.083 HD  
ENDROOT
BRANCH   1   7
ATOM     7   C5  UNL     1      -0.357   2.713  -4.186  1.00  0.00     0.169 C   
BRANCH   7   8
ATOM     8   C4  UNL     1      -0.443   4.121  -3.650  1.00  0.00    -0.028 A   
ATOM     9   C1  UNL     1      -0.600   6.711  -2.619  1.00  0.00     0.123 A   
ATOM     10  C2  UNL     1       0.588   6.272  -3.190  1.00  0.00     0.039 A   
ATOM     11  C23 UNL     1      -1.713   5.882  -2.558  1.00  0.00     0.039 A   
ATOM     12  C3  UNL     1       0.669   4.977  -3.706  1.00  0.00     0.008 A   
ATOM     13  C22 UNL     1      -1.637   4.587  -3.072  1.00  0.00     0.008 A   
ATOM     14  F1  UNL     1      -0.673   7.951  -2.120  1.00  0.00    -0.207 F   
ENDBRANCH   7   8
ENDBRANCH   1   7
BRANCH   3  15
ATOM     15  C8  UNL     1       1.090  -0.219  -0.338  1.00  0.00     0.117 C   
BRANCH  15  16
ATOM     16  N2  UNL     1       0.068  -0.556   0.722  1.00  0.00     0.249 N   
ATOM     17  H7  UNL     1      -0.751  -0.943   0.228  1.00  0.00     0.199 HD  
ATOM     18  H8  UNL     1       0.400  -1.294   1.351  1.00  0.00     0.199 HD  
BRANCH  16  19
ATOM     19  C9  UNL     1      -0.413   0.597   1.533  1.00  0.00     0.164 C   
BRANCH  19  20
ATOM     20  C10 UNL     1      -1.533   0.166   2.437  1.00  0.00    -0.002 A   
ATOM     21  C11 UNL     1      -2.870   0.190   1.970  1.00  0.00     0.012 A   
ATOM     22  C15 UNL     1      -1.258  -0.321   3.726  1.00  0.00     0.045 A   
ATOM     23  C12 UNL     1      -3.922  -0.251   2.779  1.00  0.00     0.037 A   
ATOM     24  C14 UNL     1      -2.320  -0.749   4.497  1.00  0.00     0.109 A   
ATOM     25  C13 UNL     1      -3.613  -0.714   4.038  1.00  0.00     0.108 A   
ATOM     26  O1  UNL     1      -2.228  -1.246   5.758  1.00  0.00    -0.316 OA  
ATOM     27  O2  UNL     1      -4.500  -1.181   4.955  1.00  0.00    -0.316 OA  
ATOM     28  C16 UNL     1      -3.622  -1.488   6.058  1.00  0.00     0.337 C   
ENDBRANCH  19  20
ENDBRANCH  16  19
ENDBRANCH  15  16
BRANCH  15  29
ATOM     29  C17 UNL     1       1.806  -1.526  -0.729  1.00  0.00     0.043 C   
ATOM     30  C18 UNL     1       2.989  -1.358  -1.698  1.00  0.00     0.010 C   
ATOM     31  C21 UNL     1       0.935  -2.610  -1.373  1.00  0.00     0.010 C   
ATOM     32  C19 UNL     1       2.989  -2.600  -2.592  1.00  0.00     0.001 C   
ATOM     33  C20 UNL     1       1.964  -3.546  -1.986  1.00  0.00     0.001 C   
ENDBRANCH  15  29
ENDBRANCH   3  15
TORSDOF 7
