REMARK SMILES CC(C)[C@H]([NH2+]Cc1ccc2c(c1)OCO2)c1cn(C[C@@H](O)c2ccsc2)nn1
REMARK SMILES IDX 16 1 17 2 18 3 27 4 28 5 4 7 2 8 1 9 3 10 5 11 6 14 7 15
REMARK SMILES IDX 8 16 12 17 9 18 11 19 10 20 13 21 15 22 14 23 19 24 20 25
REMARK SMILES IDX 21 26 22 28 23 29 26 30 24 31 25 32
REMARK H PARENT 17 6 5 12 5 13 21 27
ROOT
ATOM     1   C13 UNL     1       0.333  -0.647  -1.022  1.00  0.00     0.127 A   
ATOM     2   C14 UNL     1       1.589  -1.168  -0.803  1.00  0.00     0.045 A   
ATOM     3   N2  UNL     1       2.123  -0.351   0.154  1.00  0.00    -0.209 N   
ATOM     4   N3  UNL     1       1.228   0.569   0.556  1.00  0.00    -0.076 NA  
ATOM     5   N4  UNL     1       0.133   0.410  -0.169  1.00  0.00    -0.132 NA  
ATOM     6   H18 UNL     1       2.147  -1.981  -1.248  1.00  0.00     0.083 HD  
ENDROOT
BRANCH   1   7
ATOM     7   C4  UNL     1      -0.760  -1.055  -1.956  1.00  0.00     0.117 C   
BRANCH   7   8
ATOM     8   C2  UNL     1      -0.627  -0.464  -3.384  1.00  0.00     0.037 C   
ATOM     9   C1  UNL     1       0.588  -1.035  -4.125  1.00  0.00     0.014 C   
ATOM     10  C3  UNL     1      -0.585   1.069  -3.426  1.00  0.00     0.014 C   
ENDBRANCH   7   8
BRANCH   7  11
ATOM     11  N1  UNL     1      -2.099  -0.637  -1.396  1.00  0.00     0.249 N   
ATOM     12  H9  UNL     1      -1.985   0.324  -1.040  1.00  0.00     0.199 HD  
ATOM     13  H10 UNL     1      -2.818  -0.592  -2.126  1.00  0.00     0.199 HD  
BRANCH  11  14
ATOM     14  C5  UNL     1      -2.602  -1.463  -0.264  1.00  0.00     0.164 C   
BRANCH  14  15
ATOM     15  C6  UNL     1      -3.903  -0.913   0.248  1.00  0.00    -0.002 A   
ATOM     16  C7  UNL     1      -5.135  -1.418  -0.231  1.00  0.00     0.012 A   
ATOM     17  C11 UNL     1      -3.900   0.148   1.170  1.00  0.00     0.045 A   
ATOM     18  C8  UNL     1      -6.350  -0.882   0.209  1.00  0.00     0.037 A   
ATOM     19  C10 UNL     1      -5.115   0.653   1.583  1.00  0.00     0.109 A   
ATOM     20  C9  UNL     1      -6.306   0.153   1.117  1.00  0.00     0.108 A   
ATOM     21  O1  UNL     1      -5.290   1.673   2.464  1.00  0.00    -0.316 OA  
ATOM     22  O2  UNL     1      -7.380   0.793   1.647  1.00  0.00    -0.316 OA  
ATOM     23  C12 UNL     1      -6.733   1.743   2.520  1.00  0.00     0.337 C   
ENDBRANCH  14  15
ENDBRANCH  11  14
ENDBRANCH   7  11
ENDBRANCH   1   7
BRANCH   3  24
ATOM     24  C15 UNL     1       3.463  -0.362   0.692  1.00  0.00     0.170 C   
BRANCH  24  25
ATOM     25  C16 UNL     1       4.296   0.845   0.246  1.00  0.00     0.164 C   
BRANCH  25  26
ATOM     26  O3  UNL     1       5.582   0.747   0.866  1.00  0.00    -0.387 OA  
ATOM     27  H22 UNL     1       6.102   1.512   0.558  1.00  0.00     0.211 HD  
ENDBRANCH  25  26
BRANCH  25  28
ATOM     28  C17 UNL     1       4.441   0.929  -1.254  1.00  0.00    -0.011 A   
ATOM     29  C18 UNL     1       5.341   0.134  -2.041  1.00  0.00     0.014 A   
ATOM     30  C20 UNL     1       3.711   1.783  -2.063  1.00  0.00     0.052 A   
ATOM     31  C19 UNL     1       5.247   0.404  -3.389  1.00  0.00     0.046 A   
ATOM     32  S1  UNL     1       4.080   1.605  -3.722  1.00  0.00    -0.106 S   
ENDBRANCH  25  28
ENDBRANCH  24  25
ENDBRANCH   3  24
TORSDOF 9
