REMARK SMILES CC(C)[C@H]([NH2+]Cc1ccc2c(c1)OCO2)c1cn(C[C@H](O)c2ccsc2)nn1
REMARK SMILES IDX 16 1 17 2 18 3 27 4 28 5 4 7 2 8 1 9 3 10 5 11 6 14 7 15
REMARK SMILES IDX 8 16 12 17 9 18 11 19 10 20 13 21 15 22 14 23 19 24 20 25
REMARK SMILES IDX 21 26 22 28 23 29 26 30 24 31 25 32
REMARK H PARENT 17 6 5 12 5 13 21 27
ROOT
ATOM     1   C13 UNL     1       1.688  -0.815   1.141  1.00  0.00     0.127 A   
ATOM     2   C14 UNL     1       2.164  -1.089  -0.121  1.00  0.00     0.045 A   
ATOM     3   N2  UNL     1       2.370  -2.439  -0.112  1.00  0.00    -0.209 N   
ATOM     4   N3  UNL     1       2.020  -2.972   1.074  1.00  0.00    -0.076 NA  
ATOM     5   N4  UNL     1       1.611  -1.985   1.853  1.00  0.00    -0.132 NA  
ATOM     6   H18 UNL     1       2.358  -0.477  -0.993  1.00  0.00     0.083 HD  
ENDROOT
BRANCH   1   7
ATOM     7   C4  UNL     1       1.224   0.461   1.766  1.00  0.00     0.117 C   
BRANCH   7   8
ATOM     8   C2  UNL     1       2.337   1.236   2.524  1.00  0.00     0.037 C   
ATOM     9   C1  UNL     1       2.978   0.452   3.676  1.00  0.00     0.014 C   
ATOM     10  C3  UNL     1       3.425   1.736   1.568  1.00  0.00     0.014 C   
ENDBRANCH   7   8
BRANCH   7  11
ATOM     11  N1  UNL     1       0.095   0.180   2.736  1.00  0.00     0.249 N   
ATOM     12  H9  UNL     1      -0.052   0.980   3.359  1.00  0.00     0.199 HD  
ATOM     13  H10 UNL     1       0.409  -0.610   3.316  1.00  0.00     0.199 HD  
BRANCH  11  14
ATOM     14  C5  UNL     1      -1.209  -0.217   2.131  1.00  0.00     0.164 C   
BRANCH  14  15
ATOM     15  C6  UNL     1      -1.907   0.924   1.449  1.00  0.00    -0.002 A   
ATOM     16  C7  UNL     1      -1.928   1.007   0.036  1.00  0.00     0.012 A   
ATOM     17  C11 UNL     1      -2.526   1.931   2.211  1.00  0.00     0.045 A   
ATOM     18  C8  UNL     1      -2.558   2.074  -0.613  1.00  0.00     0.037 A   
ATOM     19  C10 UNL     1      -3.136   2.970   1.539  1.00  0.00     0.109 A   
ATOM     20  C9  UNL     1      -3.152   3.040   0.168  1.00  0.00     0.108 A   
ATOM     21  O1  UNL     1      -3.781   4.014   2.121  1.00  0.00    -0.316 OA  
ATOM     22  O2  UNL     1      -3.813   4.137  -0.286  1.00  0.00    -0.316 OA  
ATOM     23  C12 UNL     1      -4.238   4.739   0.955  1.00  0.00     0.337 C   
ENDBRANCH  14  15
ENDBRANCH  11  14
ENDBRANCH   7  11
ENDBRANCH   1   7
BRANCH   3  24
ATOM     24  C15 UNL     1       2.832  -3.280  -1.192  1.00  0.00     0.170 C   
BRANCH  24  25
ATOM     25  C16 UNL     1       1.751  -4.227  -1.726  1.00  0.00     0.164 C   
BRANCH  25  26
ATOM     26  O3  UNL     1       2.327  -5.001  -2.780  1.00  0.00    -0.387 OA  
ATOM     27  H22 UNL     1       1.632  -5.598  -3.108  1.00  0.00     0.211 HD  
ENDBRANCH  25  26
BRANCH  25  28
ATOM     28  C17 UNL     1       0.531  -3.491  -2.226  1.00  0.00    -0.011 A   
ATOM     29  C18 UNL     1       0.466  -2.751  -3.454  1.00  0.00     0.014 A   
ATOM     30  C20 UNL     1      -0.681  -3.429  -1.559  1.00  0.00     0.052 A   
ATOM     31  C19 UNL     1      -0.758  -2.152  -3.652  1.00  0.00     0.046 A   
ATOM     32  S1  UNL     1      -1.841  -2.474  -2.373  1.00  0.00    -0.106 S   
ENDBRANCH  25  28
ENDBRANCH  24  25
ENDBRANCH   3  24
TORSDOF 9
