REMARK SMILES [O-]N([O-])c1ccc(Cn2cc([C@@H]([NH2+]Cc3ccc4c(c3)OCO4)C3CCCC3)nn2)cc1F
REMARK SMILES IDX 9 1 10 2 11 3 29 4 30 5 8 7 7 8 4 9 5 10 32 11 6 12 31 13
REMARK SMILES IDX 33 14 2 15 1 16 3 17 12 18 13 19 14 22 15 23 16 24 20 25
REMARK SMILES IDX 17 26 19 27 18 28 21 29 23 30 22 31 24 32 25 33 28 34 26 35
REMARK SMILES IDX 27 36
REMARK H PARENT 10 6 13 20 13 21
ROOT
ATOM     1   N2  UNL     1       0.645   0.528  -2.235  1.00  0.00    -0.208 N   
ATOM     2   C6  UNL     1       0.602   1.072  -0.981  1.00  0.00     0.046 A   
ATOM     3   C7  UNL     1       1.371   0.216  -0.222  1.00  0.00     0.127 A   
ATOM     4   N4  UNL     1       1.848  -0.790  -1.022  1.00  0.00    -0.132 NA  
ATOM     5   N5  UNL     1       1.405  -0.584  -2.250  1.00  0.00    -0.076 NA  
ATOM     6   H5  UNL     1       0.022   1.955  -0.750  1.00  0.00     0.083 HD  
ENDROOT
BRANCH   1   7
ATOM     7   C5  UNL     1      -0.054   0.960  -3.434  1.00  0.00     0.169 C   
BRANCH   7   8
ATOM     8   C4  UNL     1      -1.445   0.368  -3.485  1.00  0.00    -0.026 A   
ATOM     9   C1  UNL     1      -4.003  -0.758  -3.513  1.00  0.00     0.153 A   
ATOM     10  C2  UNL     1      -3.858   0.617  -3.288  1.00  0.00     0.035 A   
ATOM     11  C23 UNL     1      -2.897  -1.568  -3.726  1.00  0.00     0.152 A   
ATOM     12  C3  UNL     1      -2.577   1.175  -3.274  1.00  0.00     0.008 A   
ATOM     13  C22 UNL     1      -1.622  -1.008  -3.721  1.00  0.00     0.047 A   
ATOM     14  F1  UNL     1      -3.014  -2.892  -3.893  1.00  0.00    -0.205 F   
BRANCH   9  15
ATOM     15  N1  UNL     1      -5.322  -1.349  -3.483  1.00  0.00     0.095 N   
ATOM     16  O1  UNL     1      -5.621  -2.143  -4.381  1.00  0.00    -0.138 OA  
ATOM     17  O2  UNL     1      -6.070  -0.991  -2.561  1.00  0.00    -0.138 OA  
ENDBRANCH   9  15
ENDBRANCH   7   8
ENDBRANCH   1   7
BRANCH   3  18
ATOM     18  C8  UNL     1       1.641   0.157   1.247  1.00  0.00     0.117 C   
BRANCH  18  19
ATOM     19  N3  UNL     1       1.538  -1.298   1.673  1.00  0.00     0.249 N   
ATOM     20  H7  UNL     1       2.467  -1.662   1.909  1.00  0.00     0.199 HD  
ATOM     21  H8  UNL     1       1.283  -1.831   0.827  1.00  0.00     0.199 HD  
BRANCH  19  22
ATOM     22  C9  UNL     1       0.568  -1.628   2.749  1.00  0.00     0.164 C   
BRANCH  22  23
ATOM     23  C10 UNL     1      -0.841  -1.162   2.491  1.00  0.00    -0.002 A   
ATOM     24  C11 UNL     1      -1.507  -0.386   3.472  1.00  0.00     0.012 A   
ATOM     25  C15 UNL     1      -1.516  -1.491   1.300  1.00  0.00     0.045 A   
ATOM     26  C12 UNL     1      -2.814   0.069   3.268  1.00  0.00     0.037 A   
ATOM     27  C14 UNL     1      -2.802  -1.019   1.128  1.00  0.00     0.109 A   
ATOM     28  C13 UNL     1      -3.433  -0.264   2.085  1.00  0.00     0.108 A   
ATOM     29  O3  UNL     1      -3.583  -1.226   0.035  1.00  0.00    -0.316 OA  
ATOM     30  O4  UNL     1      -4.693   0.088   1.724  1.00  0.00    -0.316 OA  
ATOM     31  C16 UNL     1      -4.807  -0.566   0.443  1.00  0.00     0.337 C   
ENDBRANCH  22  23
ENDBRANCH  19  22
ENDBRANCH  18  19
BRANCH  18  32
ATOM     32  C17 UNL     1       3.034   0.691   1.618  1.00  0.00     0.043 C   
ATOM     33  C18 UNL     1       3.336   0.657   3.118  1.00  0.00     0.010 C   
ATOM     34  C21 UNL     1       3.218   2.179   1.299  1.00  0.00     0.010 C   
ATOM     35  C19 UNL     1       4.526   1.594   3.276  1.00  0.00     0.001 C   
ATOM     36  C20 UNL     1       4.405   2.619   2.151  1.00  0.00     0.001 C   
ENDBRANCH  18  32
ENDBRANCH   3  18
TORSDOF 8
