REMARK SMILES COc1ccc(CCn2cc([C@H](CC(C)C)[NH2+]Cc3ccc4c(c3)OCO4)nn2)cn1
REMARK SMILES IDX 9 1 10 2 11 3 28 4 29 5 8 7 7 8 6 9 3 10 4 11 31 12 5 13
REMARK SMILES IDX 30 14 2 15 1 16 12 17 13 18 14 19 15 20 16 21 17 22 18 25
REMARK SMILES IDX 19 26 20 27 24 28 21 29 23 30 22 31 25 32 27 33 26 34
REMARK H PARENT 10 6 17 23 17 24
ROOT
ATOM     1   N1  UNL     1      -3.262  -2.835  -1.364  1.00  0.00    -0.212 N   
ATOM     2   C8  UNL     1      -2.264  -1.918  -1.566  1.00  0.00     0.045 A   
ATOM     3   C9  UNL     1      -2.417  -1.026  -0.524  1.00  0.00     0.127 A   
ATOM     4   N3  UNL     1      -3.541  -1.364   0.185  1.00  0.00    -0.132 NA  
ATOM     5   N4  UNL     1      -4.059  -2.460  -0.349  1.00  0.00    -0.076 NA  
ATOM     6   H10 UNL     1      -1.498  -2.057  -2.315  1.00  0.00     0.083 HD  
ENDROOT
BRANCH   1   7
ATOM     7   C7  UNL     1      -3.289  -4.205  -1.848  1.00  0.00     0.139 C   
BRANCH   7   8
ATOM     8   C6  UNL     1      -2.746  -5.212  -0.812  1.00  0.00     0.058 C   
BRANCH   8   9
ATOM     9   C5  UNL     1      -1.427  -4.772  -0.220  1.00  0.00    -0.028 A   
ATOM     10  C2  UNL     1       0.828  -3.575   0.755  1.00  0.00     0.166 A   
ATOM     11  C3  UNL     1       0.927  -4.298  -0.421  1.00  0.00     0.055 A   
ATOM     12  N5  UNL     1      -0.323  -3.384   1.443  1.00  0.00    -0.233 NA  
ATOM     13  C4  UNL     1      -0.224  -4.905  -0.918  1.00  0.00     0.010 A   
ATOM     14  C23 UNL     1      -1.405  -4.055   0.978  1.00  0.00     0.117 A   
BRANCH  10  15
ATOM     15  O1  UNL     1       1.916  -2.838   1.157  1.00  0.00    -0.333 OA  
ATOM     16  C1  UNL     1       2.252  -3.175   2.504  1.00  0.00     0.205 C   
ENDBRANCH  10  15
ENDBRANCH   8   9
ENDBRANCH   7   8
ENDBRANCH   1   7
BRANCH   3  17
ATOM     17  C10 UNL     1      -1.513   0.043   0.006  1.00  0.00     0.114 C   
BRANCH  17  18
ATOM     18  C11 UNL     1      -0.639   0.727  -1.061  1.00  0.00     0.064 C   
BRANCH  18  19
ATOM     19  C12 UNL     1      -1.423   1.557  -2.099  1.00  0.00    -0.012 C   
ATOM     20  C13 UNL     1      -0.465   2.067  -3.181  1.00  0.00     0.007 C   
ATOM     21  C14 UNL     1      -2.152   2.742  -1.463  1.00  0.00     0.007 C   
ENDBRANCH  18  19
ENDBRANCH  17  18
BRANCH  17  22
ATOM     22  N2  UNL     1      -0.598  -0.563   1.047  1.00  0.00     0.249 N   
ATOM     23  H21 UNL     1      -0.882  -1.546   1.215  1.00  0.00     0.199 HD  
ATOM     24  H22 UNL     1       0.358  -0.666   0.692  1.00  0.00     0.199 HD  
BRANCH  22  25
ATOM     25  C15 UNL     1      -0.573   0.091   2.378  1.00  0.00     0.164 C   
BRANCH  25  26
ATOM     26  C16 UNL     1       0.191   1.385   2.369  1.00  0.00    -0.002 A   
ATOM     27  C17 UNL     1       1.606   1.374   2.435  1.00  0.00     0.012 A   
ATOM     28  C21 UNL     1      -0.487   2.611   2.248  1.00  0.00     0.045 A   
ATOM     29  C18 UNL     1       2.337   2.565   2.386  1.00  0.00     0.037 A   
ATOM     30  C20 UNL     1       0.265   3.766   2.191  1.00  0.00     0.109 A   
ATOM     31  C19 UNL     1       1.637   3.745   2.259  1.00  0.00     0.108 A   
ATOM     32  O2  UNL     1      -0.230   5.024   2.060  1.00  0.00    -0.316 OA  
ATOM     33  O3  UNL     1       2.179   4.988   2.187  1.00  0.00    -0.316 OA  
ATOM     34  C22 UNL     1       0.990   5.801   2.079  1.00  0.00     0.337 C   
ENDBRANCH  25  26
ENDBRANCH  22  25
ENDBRANCH  17  22
ENDBRANCH   3  17
TORSDOF 10
