REMARK SMILES CC(C)C[C@H]([NH2+]Cc1ccc2c(c1)OCO2)c1cn(CCc2cccnc2)nn1
REMARK SMILES IDX 17 1 18 2 19 3 28 4 29 5 5 7 4 8 2 9 1 10 3 11 6 12 7 15
REMARK SMILES IDX 8 16 9 17 13 18 10 19 12 20 11 21 14 22 16 23 15 24 20 25
REMARK SMILES IDX 21 26 22 27 23 28 27 29 24 30 26 31 25 32
REMARK H PARENT 18 6 6 13 6 14
ROOT
ATOM     1   C14 UNL     1       2.188   0.595  -0.109  1.00  0.00     0.127 A   
ATOM     2   C15 UNL     1       2.835   0.086   0.997  1.00  0.00     0.045 A   
ATOM     3   N2  UNL     1       3.851   0.980   1.217  1.00  0.00    -0.212 N   
ATOM     4   N4  UNL     1       3.912   1.892   0.229  1.00  0.00    -0.076 NA  
ATOM     5   N5  UNL     1       2.879   1.686  -0.572  1.00  0.00    -0.132 NA  
ATOM     6   H20 UNL     1       2.600  -0.707   1.693  1.00  0.00     0.083 HD  
ENDROOT
BRANCH   1   7
ATOM     7   C5  UNL     1       0.857   0.257  -0.697  1.00  0.00     0.114 C   
BRANCH   7   8
ATOM     8   C4  UNL     1       0.910   0.081  -2.230  1.00  0.00     0.064 C   
BRANCH   8   9
ATOM     9   C2  UNL     1       1.642  -1.170  -2.773  1.00  0.00    -0.012 C   
ATOM     10  C1  UNL     1       3.164  -1.085  -2.674  1.00  0.00     0.007 C   
ATOM     11  C3  UNL     1       1.137  -2.471  -2.150  1.00  0.00     0.007 C   
ENDBRANCH   8   9
ENDBRANCH   7   8
BRANCH   7  12
ATOM     12  N1  UNL     1      -0.069   1.408  -0.341  1.00  0.00     0.249 N   
ATOM     13  H11 UNL     1      -0.015   1.559   0.686  1.00  0.00     0.199 HD  
ATOM     14  H12 UNL     1       0.347   2.265  -0.727  1.00  0.00     0.199 HD  
BRANCH  12  15
ATOM     15  C6  UNL     1      -1.506   1.340  -0.711  1.00  0.00     0.164 C   
BRANCH  15  16
ATOM     16  C7  UNL     1      -2.216   0.126  -0.176  1.00  0.00    -0.002 A   
ATOM     17  C8  UNL     1      -2.613   0.073   1.182  1.00  0.00     0.012 A   
ATOM     18  C12 UNL     1      -2.465  -0.979  -1.010  1.00  0.00     0.045 A   
ATOM     19  C9  UNL     1      -3.228  -1.067   1.712  1.00  0.00     0.037 A   
ATOM     20  C11 UNL     1      -3.070  -2.089  -0.458  1.00  0.00     0.109 A   
ATOM     21  C10 UNL     1      -3.438  -2.135   0.866  1.00  0.00     0.108 A   
ATOM     22  O1  UNL     1      -3.365  -3.240  -1.121  1.00  0.00    -0.316 OA  
ATOM     23  O2  UNL     1      -4.010  -3.319   1.204  1.00  0.00    -0.316 OA  
ATOM     24  C13 UNL     1      -3.991  -4.009  -0.068  1.00  0.00     0.337 C   
ENDBRANCH  15  16
ENDBRANCH  12  15
ENDBRANCH   7  12
ENDBRANCH   1   7
BRANCH   3  25
ATOM     25  C16 UNL     1       4.534   1.228   2.474  1.00  0.00     0.139 C   
BRANCH  25  26
ATOM     26  C17 UNL     1       3.947   2.439   3.225  1.00  0.00     0.058 C   
BRANCH  26  27
ATOM     27  C18 UNL     1       2.461   2.303   3.462  1.00  0.00    -0.028 A   
ATOM     28  C19 UNL     1       1.956   1.615   4.565  1.00  0.00     0.007 A   
ATOM     29  C22 UNL     1       1.544   2.764   2.515  1.00  0.00     0.114 A   
ATOM     30  C20 UNL     1       0.583   1.422   4.679  1.00  0.00     0.020 A   
ATOM     31  N3  UNL     1       0.212   2.497   2.535  1.00  0.00    -0.264 NA  
ATOM     32  C21 UNL     1      -0.236   1.878   3.656  1.00  0.00     0.111 A   
ENDBRANCH  26  27
ENDBRANCH  25  26
ENDBRANCH   3  25
TORSDOF 9
