REMARK SMILES CC(C)(C)[C@H]([NH2+]Cc1ccc2c(c1)OCO2)c1cn(-c2cccc(CO)c2)nn1
REMARK SMILES IDX 17 1 18 2 19 3 28 4 29 5 5 6 2 7 1 8 3 9 4 10 6 11 7 14 8 15
REMARK SMILES IDX 9 16 13 17 10 18 12 19 11 20 14 21 16 22 15 23 20 24 21 25
REMARK SMILES IDX 27 26 22 27 24 28 23 29 25 30 26 31
REMARK H PARENT 6 12 6 13 26 32
ROOT
ATOM     1   C14 UNL     1      -0.576  -0.791   1.267  1.00  0.00     0.128 A   
ATOM     2   C15 UNL     1      -0.204  -0.536  -0.034  1.00  0.00     0.135 A   
ATOM     3   N2  UNL     1      -0.869   0.626  -0.375  1.00  0.00    -0.181 N   
ATOM     4   N3  UNL     1      -1.661   0.997   0.667  1.00  0.00    -0.071 NA  
ATOM     5   N4  UNL     1      -1.471   0.159   1.672  1.00  0.00    -0.131 NA  
ENDROOT
BRANCH   1   6
ATOM     6   C5  UNL     1      -0.068  -1.794   2.257  1.00  0.00     0.120 C   
BRANCH   6   7
ATOM     7   C2  UNL     1      -1.025  -3.013   2.492  1.00  0.00     0.010 C   
ATOM     8   C1  UNL     1      -1.327  -3.713   1.147  1.00  0.00     0.017 C   
ATOM     9   C3  UNL     1      -2.366  -2.612   3.139  1.00  0.00     0.017 C   
ATOM     10  C4  UNL     1      -0.339  -4.060   3.400  1.00  0.00     0.017 C   
ENDBRANCH   6   7
BRANCH   6  11
ATOM     11  N1  UNL     1       0.213  -1.070   3.565  1.00  0.00     0.250 N   
ATOM     12  H11 UNL     1      -0.451  -0.279   3.595  1.00  0.00     0.199 HD  
ATOM     13  H12 UNL     1      -0.019  -1.653   4.373  1.00  0.00     0.199 HD  
BRANCH  11  14
ATOM     14  C6  UNL     1       1.594  -0.527   3.745  1.00  0.00     0.164 C   
BRANCH  14  15
ATOM     15  C7  UNL     1       1.980   0.508   2.726  1.00  0.00    -0.002 A   
ATOM     16  C8  UNL     1       1.427   1.810   2.784  1.00  0.00     0.012 A   
ATOM     17  C12 UNL     1       2.836   0.169   1.663  1.00  0.00     0.045 A   
ATOM     18  C9  UNL     1       1.699   2.753   1.786  1.00  0.00     0.037 A   
ATOM     19  C11 UNL     1       3.072   1.118   0.690  1.00  0.00     0.109 A   
ATOM     20  C10 UNL     1       2.518   2.373   0.747  1.00  0.00     0.108 A   
ATOM     21  O1  UNL     1       3.829   0.934  -0.423  1.00  0.00    -0.316 OA  
ATOM     22  O2  UNL     1       2.864   3.141  -0.317  1.00  0.00    -0.316 OA  
ATOM     23  C13 UNL     1       3.690   2.224  -1.065  1.00  0.00     0.337 C   
ENDBRANCH  14  15
ENDBRANCH  11  14
ENDBRANCH   6  11
ENDBRANCH   1   6
BRANCH   3  24
ATOM     24  C16 UNL     1      -0.768   1.398  -1.558  1.00  0.00     0.058 A   
ATOM     25  C17 UNL     1      -1.540   2.559  -1.695  1.00  0.00     0.026 A   
ATOM     26  C22 UNL     1       0.111   1.027  -2.587  1.00  0.00     0.032 A   
ATOM     27  C18 UNL     1      -1.433   3.337  -2.847  1.00  0.00     0.002 A   
ATOM     28  C20 UNL     1       0.239   1.819  -3.741  1.00  0.00    -0.021 A   
ATOM     29  C19 UNL     1      -0.553   2.969  -3.864  1.00  0.00     0.006 A   
BRANCH  28  30
ATOM     30  C21 UNL     1       1.164   1.423  -4.864  1.00  0.00     0.191 C   
BRANCH  30  31
ATOM     31  O3  UNL     1       2.312   0.756  -4.351  1.00  0.00    -0.392 OA  
ATOM     32  H26 UNL     1       2.873   0.554  -5.121  1.00  0.00     0.211 HD  
ENDBRANCH  30  31
ENDBRANCH  28  30
ENDBRANCH   3  24
TORSDOF 8
