REMARK SMILES Cc1cc(Cn2cc([C@H](CC(C)C)[NH2+]Cc3ccc4c(c3)OCO4)nn2)cc(C)c1O
REMARK SMILES IDX 6 1 7 2 8 3 25 4 26 5 5 7 4 8 2 9 3 10 30 11 28 12 27 13
REMARK SMILES IDX 1 14 29 15 31 16 9 18 10 19 11 20 12 21 13 22 14 23 15 26
REMARK SMILES IDX 16 27 17 28 21 29 18 30 20 31 19 32 22 33 24 34 23 35
REMARK H PARENT 7 6 31 17 14 24 14 25
ROOT
ATOM     1   N1  UNL     1      -1.295  -0.994  -2.229  1.00  0.00    -0.208 N   
ATOM     2   C6  UNL     1      -0.625   0.161  -1.931  1.00  0.00     0.046 A   
ATOM     3   C7  UNL     1       0.692  -0.143  -2.192  1.00  0.00     0.127 A   
ATOM     4   N3  UNL     1       0.772  -1.419  -2.686  1.00  0.00    -0.132 NA  
ATOM     5   N4  UNL     1      -0.448  -1.933  -2.696  1.00  0.00    -0.076 NA  
ATOM     6   H7  UNL     1      -1.118   1.027  -1.513  1.00  0.00     0.083 HD  
ENDROOT
BRANCH   1   7
ATOM     7   C5  UNL     1      -2.692  -1.305  -1.975  1.00  0.00     0.169 C   
BRANCH   7   8
ATOM     8   C4  UNL     1      -2.916  -1.484  -0.492  1.00  0.00    -0.028 A   
ATOM     9   C2  UNL     1      -3.538  -0.561   1.675  1.00  0.00    -0.020 A   
ATOM     10  C3  UNL     1      -3.397  -0.424   0.289  1.00  0.00     0.011 A   
ATOM     11  C24 UNL     1      -3.206  -1.783   2.275  1.00  0.00     0.077 A   
ATOM     12  C22 UNL     1      -2.722  -2.860   1.520  1.00  0.00    -0.020 A   
ATOM     13  C21 UNL     1      -2.584  -2.696   0.133  1.00  0.00     0.011 A   
ATOM     14  C1  UNL     1      -4.070   0.580   2.498  1.00  0.00     0.047 C   
ATOM     15  C23 UNL     1      -2.360  -4.178   2.144  1.00  0.00     0.047 C   
BRANCH  11  16
ATOM     16  O3  UNL     1      -3.367  -1.873   3.631  1.00  0.00    -0.360 OA  
ATOM     17  H31 UNL     1      -3.374  -2.805   3.899  1.00  0.00     0.218 HD  
ENDBRANCH  11  16
ENDBRANCH   7   8
ENDBRANCH   1   7
BRANCH   3  18
ATOM     18  C8  UNL     1       1.936   0.630  -1.921  1.00  0.00     0.114 C   
BRANCH  18  19
ATOM     19  C9  UNL     1       2.563   1.218  -3.199  1.00  0.00     0.064 C   
BRANCH  19  20
ATOM     20  C10 UNL     1       1.686   2.245  -3.948  1.00  0.00    -0.012 C   
ATOM     21  C11 UNL     1       1.358   3.469  -3.091  1.00  0.00     0.007 C   
ATOM     22  C12 UNL     1       2.394   2.689  -5.231  1.00  0.00     0.007 C   
ENDBRANCH  19  20
ENDBRANCH  18  19
BRANCH  18  23
ATOM     23  N2  UNL     1       2.990  -0.258  -1.284  1.00  0.00     0.249 N   
ATOM     24  H18 UNL     1       3.851   0.279  -1.144  1.00  0.00     0.199 HD  
ATOM     25  H19 UNL     1       3.197  -1.001  -1.964  1.00  0.00     0.199 HD  
BRANCH  23  26
ATOM     26  C13 UNL     1       2.618  -0.936  -0.002  1.00  0.00     0.164 C   
BRANCH  26  27
ATOM     27  C14 UNL     1       2.149   0.001   1.075  1.00  0.00    -0.002 A   
ATOM     28  C15 UNL     1       0.809  -0.057   1.530  1.00  0.00     0.012 A   
ATOM     29  C19 UNL     1       3.026   0.949   1.630  1.00  0.00     0.045 A   
ATOM     30  C16 UNL     1       0.342   0.822   2.513  1.00  0.00     0.037 A   
ATOM     31  C18 UNL     1       2.532   1.802   2.596  1.00  0.00     0.109 A   
ATOM     32  C17 UNL     1       1.228   1.743   3.023  1.00  0.00     0.108 A   
ATOM     33  O1  UNL     1       3.241   2.776   3.224  1.00  0.00    -0.316 OA  
ATOM     34  O2  UNL     1       0.952   2.672   3.974  1.00  0.00    -0.316 OA  
ATOM     35  C20 UNL     1       2.242   3.303   4.128  1.00  0.00     0.337 C   
ENDBRANCH  26  27
ENDBRANCH  23  26
ENDBRANCH  18  23
ENDBRANCH   3  18
TORSDOF 9
