REMARK SMILES CC(C)[C@H]([NH2+]Cc1ccc2c(c1)OCO2)c1cn(Cc2c[nH]nc2C(C)(C)C)nn1
REMARK SMILES IDX 16 1 17 2 18 3 29 4 30 5 4 7 2 8 1 9 3 10 5 11 6 14 7 15
REMARK SMILES IDX 8 16 12 17 9 18 11 19 10 20 13 21 15 22 14 23 19 24 20 25
REMARK SMILES IDX 21 26 24 27 22 28 23 29 25 31 26 32 27 33 28 34
REMARK H PARENT 17 6 5 12 5 13 22 30
ROOT
ATOM     1   C13 UNL     1      -0.320   1.335   1.173  1.00  0.00     0.127 A   
ATOM     2   C14 UNL     1      -1.633   1.192   0.785  1.00  0.00     0.046 A   
ATOM     3   N2  UNL     1      -1.699   1.840  -0.420  1.00  0.00    -0.208 N   
ATOM     4   N5  UNL     1      -0.494   2.346  -0.754  1.00  0.00    -0.076 NA  
ATOM     5   N6  UNL     1       0.357   2.042   0.212  1.00  0.00    -0.132 NA  
ATOM     6   H18 UNL     1      -2.489   0.703   1.227  1.00  0.00     0.083 HD  
ENDROOT
BRANCH   1   7
ATOM     7   C4  UNL     1       0.423   0.810   2.360  1.00  0.00     0.117 C   
BRANCH   7   8
ATOM     8   C2  UNL     1       0.457   1.782   3.567  1.00  0.00     0.037 C   
ATOM     9   C1  UNL     1       1.128   3.129   3.276  1.00  0.00     0.014 C   
ATOM     10  C3  UNL     1      -0.944   2.017   4.143  1.00  0.00     0.014 C   
ENDBRANCH   7   8
BRANCH   7  11
ATOM     11  N1  UNL     1       1.843   0.475   1.978  1.00  0.00     0.249 N   
ATOM     12  H9  UNL     1       2.435   0.358   2.808  1.00  0.00     0.199 HD  
ATOM     13  H10 UNL     1       2.216   1.285   1.463  1.00  0.00     0.199 HD  
BRANCH  11  14
ATOM     14  C5  UNL     1       2.002  -0.714   1.095  1.00  0.00     0.164 C   
BRANCH  14  15
ATOM     15  C6  UNL     1       3.452  -0.929   0.762  1.00  0.00    -0.002 A   
ATOM     16  C7  UNL     1       4.048  -0.224  -0.313  1.00  0.00     0.012 A   
ATOM     17  C11 UNL     1       4.238  -1.790   1.546  1.00  0.00     0.045 A   
ATOM     18  C8  UNL     1       5.406  -0.382  -0.611  1.00  0.00     0.037 A   
ATOM     19  C10 UNL     1       5.572  -1.923   1.225  1.00  0.00     0.109 A   
ATOM     20  C9  UNL     1       6.141  -1.240   0.177  1.00  0.00     0.108 A   
ATOM     21  O1  UNL     1       6.466  -2.714   1.876  1.00  0.00    -0.316 OA  
ATOM     22  O2  UNL     1       7.463  -1.516   0.035  1.00  0.00    -0.316 OA  
ATOM     23  C12 UNL     1       7.668  -2.453   1.114  1.00  0.00     0.337 C   
ENDBRANCH  14  15
ENDBRANCH  11  14
ENDBRANCH   7  11
ENDBRANCH   1   7
BRANCH   3  24
ATOM     24  C15 UNL     1      -2.855   2.028  -1.287  1.00  0.00     0.172 C   
BRANCH  24  25
ATOM     25  C16 UNL     1      -3.117   0.799  -2.091  1.00  0.00     0.011 A   
ATOM     26  C17 UNL     1      -2.280   0.278  -3.063  1.00  0.00     0.099 A   
ATOM     27  C18 UNL     1      -4.252  -0.081  -2.098  1.00  0.00     0.070 A   
ATOM     28  N3  UNL     1      -2.897  -0.822  -3.564  1.00  0.00    -0.245 N   
ATOM     29  N4  UNL     1      -4.064  -1.081  -2.971  1.00  0.00    -0.188 NA  
ATOM     30  H22 UNL     1      -2.587  -1.442  -4.307  1.00  0.00     0.175 HD  
BRANCH  27  31
ATOM     31  C19 UNL     1      -5.562  -0.024  -1.305  1.00  0.00     0.006 C   
ATOM     32  C20 UNL     1      -5.290  -0.077   0.210  1.00  0.00     0.017 C   
ATOM     33  C21 UNL     1      -6.488  -1.220  -1.639  1.00  0.00     0.017 C   
ATOM     34  C22 UNL     1      -6.341   1.262  -1.648  1.00  0.00     0.017 C   
ENDBRANCH  27  31
ENDBRANCH  24  25
ENDBRANCH   3  24
TORSDOF 8
