REMARK SMILES O[C@H](Cn1cc([C@@H]([NH2+]Cc2ccc3c(c2)OCO3)C2CCCCC2)nn1)c1ccc(Cl)cn1
REMARK SMILES IDX 4 1 5 2 6 3 25 4 26 5 3 7 2 8 1 9 27 11 28 12 33 13 29 14
REMARK SMILES IDX 32 15 30 16 31 17 7 18 8 19 9 22 10 23 11 24 15 25 12 26
REMARK SMILES IDX 14 27 13 28 16 29 18 30 17 31 19 32 20 33 24 34 21 35 23 36
REMARK SMILES IDX 22 37
REMARK H PARENT 5 6 1 10 8 20 8 21
ROOT
ATOM     1   N1  UNL     1       2.542  -0.648   1.077  1.00  0.00    -0.209 N   
ATOM     2   C3  UNL     1       1.627  -0.630   0.063  1.00  0.00     0.045 A   
ATOM     3   C4  UNL     1       0.957   0.559   0.234  1.00  0.00     0.127 A   
ATOM     4   N3  UNL     1       1.459   1.198   1.341  1.00  0.00    -0.132 NA  
ATOM     5   N4  UNL     1       2.420   0.446   1.851  1.00  0.00    -0.076 NA  
ATOM     6   H5  UNL     1       1.555  -1.430  -0.662  1.00  0.00     0.083 HD  
ENDROOT
BRANCH   1   7
ATOM     7   C2  UNL     1       3.585  -1.622   1.332  1.00  0.00     0.172 C   
BRANCH   7   8
ATOM     8   C1  UNL     1       3.021  -2.940   1.857  1.00  0.00     0.182 C   
BRANCH   8   9
ATOM     9   O1  UNL     1       2.299  -3.605   0.805  1.00  0.00    -0.385 OA  
ATOM     10  H1  UNL     1       2.870  -4.354   0.526  1.00  0.00     0.211 HD  
ENDBRANCH   8   9
BRANCH   8  11
ATOM     11  C20 UNL     1       4.155  -3.839   2.306  1.00  0.00     0.071 A   
ATOM     12  C21 UNL     1       4.513  -3.944   3.649  1.00  0.00     0.028 A   
ATOM     13  N5  UNL     1       4.789  -4.529   1.318  1.00  0.00    -0.257 NA  
ATOM     14  C22 UNL     1       5.558  -4.800   3.999  1.00  0.00     0.024 A   
ATOM     15  C24 UNL     1       5.805  -5.348   1.693  1.00  0.00     0.131 A   
ATOM     16  C23 UNL     1       6.215  -5.516   3.006  1.00  0.00     0.059 A   
ATOM     17  CL1 UNL     1       7.506  -6.573   3.397  1.00  0.00    -0.083 Cl  
ENDBRANCH   8  11
ENDBRANCH   7   8
ENDBRANCH   1   7
BRANCH   3  18
ATOM     18  C5  UNL     1      -0.171   1.180  -0.528  1.00  0.00     0.117 C   
BRANCH  18  19
ATOM     19  N2  UNL     1      -0.932   2.127   0.377  1.00  0.00     0.249 N   
ATOM     20  H7  UNL     1      -1.443   2.824  -0.172  1.00  0.00     0.199 HD  
ATOM     21  H8  UNL     1      -0.216   2.633   0.918  1.00  0.00     0.199 HD  
BRANCH  19  22
ATOM     22  C6  UNL     1      -1.856   1.494   1.361  1.00  0.00     0.164 C   
BRANCH  22  23
ATOM     23  C7  UNL     1      -3.139   1.025   0.732  1.00  0.00    -0.002 A   
ATOM     24  C8  UNL     1      -3.414  -0.358   0.609  1.00  0.00     0.012 A   
ATOM     25  C12 UNL     1      -4.077   1.961   0.263  1.00  0.00     0.045 A   
ATOM     26  C9  UNL     1      -4.603  -0.806   0.022  1.00  0.00     0.037 A   
ATOM     27  C11 UNL     1      -5.233   1.486  -0.322  1.00  0.00     0.109 A   
ATOM     28  C10 UNL     1      -5.488   0.142  -0.439  1.00  0.00     0.108 A   
ATOM     29  O2  UNL     1      -6.228   2.252  -0.842  1.00  0.00    -0.316 OA  
ATOM     30  O3  UNL     1      -6.681  -0.109  -1.036  1.00  0.00    -0.316 OA  
ATOM     31  C13 UNL     1      -7.144   1.233  -1.306  1.00  0.00     0.337 C   
ENDBRANCH  22  23
ENDBRANCH  19  22
ENDBRANCH  18  19
BRANCH  18  32
ATOM     32  C14 UNL     1       0.269   1.974  -1.788  1.00  0.00     0.043 C   
ATOM     33  C15 UNL     1       0.868   1.055  -2.871  1.00  0.00     0.010 C   
ATOM     34  C19 UNL     1       1.234   3.140  -1.494  1.00  0.00     0.010 C   
ATOM     35  C16 UNL     1       1.217   1.830  -4.140  1.00  0.00     0.001 C   
ATOM     36  C18 UNL     1       1.586   3.912  -2.766  1.00  0.00     0.001 C   
ATOM     37  C17 UNL     1       2.152   2.998  -3.847  1.00  0.00     0.000 C   
ENDBRANCH  18  32
ENDBRANCH   3  18
TORSDOF 9
