REMARK SMILES O[C@@H](Cn1cc([C@@H]([NH2+]Cc2ccc3c(c2)OCO3)C2CCCCC2)nn1)c1ccc(Cl)cn1
REMARK SMILES IDX 4 1 5 2 6 3 25 4 26 5 3 7 2 8 1 9 27 11 28 12 33 13 29 14
REMARK SMILES IDX 32 15 30 16 31 17 7 18 8 19 9 22 10 23 11 24 15 25 12 26
REMARK SMILES IDX 14 27 13 28 16 29 18 30 17 31 19 32 20 33 24 34 21 35 23 36
REMARK SMILES IDX 22 37
REMARK H PARENT 5 6 1 10 8 20 8 21
ROOT
ATOM     1   N1  UNL     1      -0.347   0.031  -2.235  1.00  0.00    -0.209 N   
ATOM     2   C3  UNL     1      -0.369   0.824  -1.123  1.00  0.00     0.045 A   
ATOM     3   C4  UNL     1       0.578   0.267  -0.292  1.00  0.00     0.127 A   
ATOM     4   N3  UNL     1       1.144  -0.813  -0.922  1.00  0.00    -0.132 NA  
ATOM     5   N4  UNL     1       0.563  -0.954  -2.103  1.00  0.00    -0.076 NA  
ATOM     6   H5  UNL     1      -1.039   1.668  -1.026  1.00  0.00     0.083 HD  
ENDROOT
BRANCH   1   7
ATOM     7   C2  UNL     1      -1.108   0.158  -3.461  1.00  0.00     0.172 C   
BRANCH   7   8
ATOM     8   C1  UNL     1      -2.626   0.143  -3.267  1.00  0.00     0.182 C   
BRANCH   8   9
ATOM     9   O1  UNL     1      -3.044   1.404  -2.714  1.00  0.00    -0.385 OA  
ATOM     10  H1  UNL     1      -3.721   1.179  -2.039  1.00  0.00     0.211 HD  
ENDBRANCH   8   9
BRANCH   8  11
ATOM     11  C20 UNL     1      -3.155  -1.000  -2.417  1.00  0.00     0.071 A   
ATOM     12  C21 UNL     1      -3.021  -2.329  -2.815  1.00  0.00     0.028 A   
ATOM     13  N5  UNL     1      -3.791  -0.644  -1.265  1.00  0.00    -0.257 NA  
ATOM     14  C22 UNL     1      -3.556  -3.333  -2.004  1.00  0.00     0.024 A   
ATOM     15  C24 UNL     1      -4.320  -1.642  -0.512  1.00  0.00     0.131 A   
ATOM     16  C23 UNL     1      -4.219  -2.985  -0.834  1.00  0.00     0.059 A   
ATOM     17  CL1 UNL     1      -4.878  -4.189   0.193  1.00  0.00    -0.083 Cl  
ENDBRANCH   8  11
ENDBRANCH   7   8
ENDBRANCH   1   7
BRANCH   3  18
ATOM     18  C5  UNL     1       0.987   0.613   1.102  1.00  0.00     0.117 C   
BRANCH  18  19
ATOM     19  N2  UNL     1       1.482  -0.621   1.834  1.00  0.00     0.249 N   
ATOM     20  H7  UNL     1       2.213  -1.035   1.240  1.00  0.00     0.199 HD  
ATOM     21  H8  UNL     1       1.917  -0.354   2.722  1.00  0.00     0.199 HD  
BRANCH  19  22
ATOM     22  C6  UNL     1       0.481  -1.701   2.084  1.00  0.00     0.164 C   
BRANCH  22  23
ATOM     23  C7  UNL     1      -0.642  -1.283   2.990  1.00  0.00    -0.002 A   
ATOM     24  C8  UNL     1      -0.439  -1.163   4.384  1.00  0.00     0.012 A   
ATOM     25  C12 UNL     1      -1.905  -0.991   2.446  1.00  0.00     0.045 A   
ATOM     26  C9  UNL     1      -1.480  -0.762   5.229  1.00  0.00     0.037 A   
ATOM     27  C11 UNL     1      -2.911  -0.604   3.307  1.00  0.00     0.109 A   
ATOM     28  C10 UNL     1      -2.704  -0.492   4.659  1.00  0.00     0.108 A   
ATOM     29  O2  UNL     1      -4.185  -0.296   2.949  1.00  0.00    -0.316 OA  
ATOM     30  O3  UNL     1      -3.821  -0.098   5.324  1.00  0.00    -0.316 OA  
ATOM     31  C13 UNL     1      -4.770  -0.006   4.240  1.00  0.00     0.337 C   
ENDBRANCH  22  23
ENDBRANCH  19  22
ENDBRANCH  18  19
BRANCH  18  32
ATOM     32  C14 UNL     1       2.094   1.701   1.194  1.00  0.00     0.043 C   
ATOM     33  C15 UNL     1       3.395   1.350   0.445  1.00  0.00     0.010 C   
ATOM     34  C19 UNL     1       1.574   3.079   0.738  1.00  0.00     0.010 C   
ATOM     35  C16 UNL     1       4.451   2.446   0.601  1.00  0.00     0.001 C   
ATOM     36  C18 UNL     1       2.634   4.166   0.908  1.00  0.00     0.001 C   
ATOM     37  C17 UNL     1       3.921   3.810   0.171  1.00  0.00     0.000 C   
ENDBRANCH  18  32
ENDBRANCH   3  18
TORSDOF 9
