REMARK SMILES CC(C)(C)[C@H]([NH2+]Cc1ccc2c(c1)OCO2)c1cn(Cc2ccc(Cl)cn2)nn1
REMARK SMILES IDX 17 1 18 2 19 3 28 4 29 5 5 7 2 8 1 9 3 10 4 11 6 12 7 15
REMARK SMILES IDX 8 16 9 17 13 18 10 19 12 20 11 21 14 22 16 23 15 24 20 25
REMARK SMILES IDX 21 26 22 27 27 28 23 29 26 30 24 31 25 32
REMARK H PARENT 18 6 6 13 6 14
ROOT
ATOM     1   C14 UNL     1       0.750   1.163   0.312  1.00  0.00     0.127 A   
ATOM     2   C15 UNL     1       1.455   0.108   0.847  1.00  0.00     0.046 A   
ATOM     3   N2  UNL     1       0.863  -0.103   2.062  1.00  0.00    -0.206 N   
ATOM     4   N4  UNL     1      -0.153   0.761   2.260  1.00  0.00    -0.076 NA  
ATOM     5   N5  UNL     1      -0.233   1.540   1.195  1.00  0.00    -0.132 NA  
ATOM     6   H20 UNL     1       2.275  -0.502   0.493  1.00  0.00     0.083 HD  
ENDROOT
BRANCH   1   7
ATOM     7   C5  UNL     1       0.835   1.847  -1.019  1.00  0.00     0.120 C   
BRANCH   7   8
ATOM     8   C2  UNL     1       1.777   3.099  -1.042  1.00  0.00     0.010 C   
ATOM     9   C1  UNL     1       1.868   3.670  -2.477  1.00  0.00     0.017 C   
ATOM     10  C3  UNL     1       1.305   4.221  -0.096  1.00  0.00     0.017 C   
ATOM     11  C4  UNL     1       3.211   2.693  -0.630  1.00  0.00     0.017 C   
ENDBRANCH   7   8
BRANCH   7  12
ATOM     12  N1  UNL     1      -0.576   2.234  -1.434  1.00  0.00     0.250 N   
ATOM     13  H11 UNL     1      -1.133   2.226  -0.564  1.00  0.00     0.199 HD  
ATOM     14  H12 UNL     1      -0.620   3.200  -1.764  1.00  0.00     0.199 HD  
BRANCH  12  15
ATOM     15  C6  UNL     1      -1.243   1.350  -2.428  1.00  0.00     0.164 C   
BRANCH  15  16
ATOM     16  C7  UNL     1      -1.400  -0.078  -1.985  1.00  0.00    -0.002 A   
ATOM     17  C8  UNL     1      -2.248  -0.410  -0.900  1.00  0.00     0.012 A   
ATOM     18  C12 UNL     1      -0.699  -1.100  -2.647  1.00  0.00     0.045 A   
ATOM     19  C9  UNL     1      -2.391  -1.736  -0.477  1.00  0.00     0.037 A   
ATOM     20  C11 UNL     1      -0.866  -2.397  -2.208  1.00  0.00     0.109 A   
ATOM     21  C10 UNL     1      -1.688  -2.707  -1.154  1.00  0.00     0.108 A   
ATOM     22  O1  UNL     1      -0.270  -3.495  -2.743  1.00  0.00    -0.316 OA  
ATOM     23  O2  UNL     1      -1.717  -4.039  -0.894  1.00  0.00    -0.316 OA  
ATOM     24  C13 UNL     1      -0.842  -4.541  -1.926  1.00  0.00     0.337 C   
ENDBRANCH  15  16
ENDBRANCH  12  15
ENDBRANCH   7  12
ENDBRANCH   1   7
BRANCH   3  25
ATOM     25  C16 UNL     1       1.225  -1.069   3.081  1.00  0.00     0.190 C   
BRANCH  25  26
ATOM     26  C17 UNL     1       0.686  -2.429   2.730  1.00  0.00     0.060 A   
ATOM     27  C18 UNL     1      -0.610  -2.798   3.093  1.00  0.00     0.027 A   
ATOM     28  N3  UNL     1       1.509  -3.256   2.034  1.00  0.00    -0.258 NA  
ATOM     29  C19 UNL     1      -1.074  -4.068   2.748  1.00  0.00     0.024 A   
ATOM     30  C21 UNL     1       1.033  -4.487   1.722  1.00  0.00     0.131 A   
ATOM     31  C20 UNL     1      -0.237  -4.930   2.053  1.00  0.00     0.059 A   
ATOM     32  CL1 UNL     1      -0.767  -6.498   1.606  1.00  0.00    -0.083 Cl  
ENDBRANCH  25  26
ENDBRANCH   3  25
TORSDOF 7
