REMARK SMILES CC(C)C[C@H]([NH2+]Cc1ccc2c(c1)OCO2)c1cn(CC(=O)c2ccccc2)nn1
REMARK SMILES IDX 17 1 18 2 19 3 29 4 30 5 5 7 4 8 2 9 1 10 3 11 6 12 7 15
REMARK SMILES IDX 8 16 9 17 13 18 10 19 12 20 11 21 14 22 16 23 15 24 20 25
REMARK SMILES IDX 21 26 22 27 23 28 24 29 28 30 25 31 27 32 26 33
REMARK H PARENT 18 6 6 13 6 14
ROOT
ATOM     1   C14 UNL     1      -1.059  -0.638   0.853  1.00  0.00     0.127 A   
ATOM     2   C15 UNL     1       0.121   0.023   0.598  1.00  0.00     0.046 A   
ATOM     3   N2  UNL     1       1.081  -0.907   0.880  1.00  0.00    -0.204 N   
ATOM     4   N3  UNL     1       0.532  -2.037   1.363  1.00  0.00    -0.076 NA  
ATOM     5   N4  UNL     1      -0.782  -1.889   1.341  1.00  0.00    -0.132 NA  
ATOM     6   H20 UNL     1       0.354   0.992   0.177  1.00  0.00     0.083 HD  
ENDROOT
BRANCH   1   7
ATOM     7   C5  UNL     1      -2.468  -0.257   0.568  1.00  0.00     0.114 C   
BRANCH   7   8
ATOM     8   C4  UNL     1      -3.298  -0.037   1.847  1.00  0.00     0.064 C   
BRANCH   8   9
ATOM     9   C2  UNL     1      -2.810   1.117   2.750  1.00  0.00    -0.012 C   
ATOM     10  C1  UNL     1      -2.837   2.469   2.036  1.00  0.00     0.007 C   
ATOM     11  C3  UNL     1      -3.674   1.184   4.013  1.00  0.00     0.007 C   
ENDBRANCH   8   9
ENDBRANCH   7   8
BRANCH   7  12
ATOM     12  N1  UNL     1      -3.148  -1.366  -0.213  1.00  0.00     0.249 N   
ATOM     13  H11 UNL     1      -4.151  -1.175  -0.289  1.00  0.00     0.199 HD  
ATOM     14  H12 UNL     1      -3.037  -2.223   0.346  1.00  0.00     0.199 HD  
BRANCH  12  15
ATOM     15  C6  UNL     1      -2.594  -1.654  -1.574  1.00  0.00     0.164 C   
BRANCH  15  16
ATOM     16  C7  UNL     1      -2.689  -0.483  -2.513  1.00  0.00    -0.002 A   
ATOM     17  C8  UNL     1      -3.949  -0.036  -2.982  1.00  0.00     0.012 A   
ATOM     18  C12 UNL     1      -1.523   0.197  -2.905  1.00  0.00     0.045 A   
ATOM     19  C9  UNL     1      -4.048   1.082  -3.817  1.00  0.00     0.037 A   
ATOM     20  C11 UNL     1      -1.656   1.296  -3.729  1.00  0.00     0.109 A   
ATOM     21  C10 UNL     1      -2.883   1.727  -4.170  1.00  0.00     0.108 A   
ATOM     22  O1  UNL     1      -0.638   2.069  -4.188  1.00  0.00    -0.316 OA  
ATOM     23  O2  UNL     1      -2.791   2.825  -4.963  1.00  0.00    -0.316 OA  
ATOM     24  C13 UNL     1      -1.361   3.015  -5.008  1.00  0.00     0.337 C   
ENDBRANCH  15  16
ENDBRANCH  12  15
ENDBRANCH   7  12
ENDBRANCH   1   7
BRANCH   3  25
ATOM     25  C16 UNL     1       2.508  -0.825   0.638  1.00  0.00     0.214 C   
BRANCH  25  26
ATOM     26  C17 UNL     1       2.825  -1.080  -0.820  1.00  0.00     0.182 C   
ATOM     27  O3  UNL     1       1.956  -1.078  -1.694  1.00  0.00    -0.292 OA  
BRANCH  26  28
ATOM     28  C18 UNL     1       4.248  -1.325  -1.204  1.00  0.00     0.019 A   
ATOM     29  C19 UNL     1       4.520  -1.757  -2.510  1.00  0.00     0.012 A   
ATOM     30  C23 UNL     1       5.309  -1.136  -0.309  1.00  0.00     0.012 A   
ATOM     31  C20 UNL     1       5.833  -2.010  -2.911  1.00  0.00     0.001 A   
ATOM     32  C22 UNL     1       6.622  -1.391  -0.716  1.00  0.00     0.001 A   
ATOM     33  C21 UNL     1       6.881  -1.828  -2.014  1.00  0.00     0.000 A   
ENDBRANCH  26  28
ENDBRANCH  25  26
ENDBRANCH   3  25
TORSDOF 9
