REMARK SMILES Cc1ccc([C@@H](CO)n2cc([C@@H]([NH2+]Cc3ccc4c(c3)OCO4)C(C)C)nn2)cc1O
REMARK SMILES IDX 9 1 10 2 11 3 27 4 28 5 6 7 5 8 2 9 3 10 30 11 4 12 29 13
REMARK SMILES IDX 1 14 31 15 7 17 8 18 12 20 13 21 14 24 15 25 16 26 20 27
REMARK SMILES IDX 17 28 19 29 18 30 21 31 23 32 22 33 24 34 25 35 26 36
REMARK H PARENT 10 6 31 16 8 19 13 22 13 23
ROOT
ATOM     1   N1  UNL     1       0.097  -1.311  -2.969  1.00  0.00    -0.202 N   
ATOM     2   C8  UNL     1      -0.507  -1.198  -1.745  1.00  0.00     0.046 A   
ATOM     3   C9  UNL     1      -1.254  -0.048  -1.843  1.00  0.00     0.127 A   
ATOM     4   N3  UNL     1      -1.111   0.478  -3.101  1.00  0.00    -0.132 NA  
ATOM     5   N4  UNL     1      -0.283  -0.300  -3.781  1.00  0.00    -0.075 NA  
ATOM     6   H10 UNL     1      -0.317  -1.901  -0.945  1.00  0.00     0.083 HD  
ENDROOT
BRANCH   1   7
ATOM     7   C6  UNL     1       1.135  -2.253  -3.392  1.00  0.00     0.155 C   
BRANCH   7   8
ATOM     8   C5  UNL     1       2.328  -2.167  -2.444  1.00  0.00    -0.021 A   
ATOM     9   C2  UNL     1       4.528  -1.852  -0.673  1.00  0.00    -0.021 A   
ATOM     10  C3  UNL     1       3.771  -3.029  -0.685  1.00  0.00     0.006 A   
ATOM     11  C23 UNL     1       4.181  -0.842  -1.571  1.00  0.00     0.074 A   
ATOM     12  C4  UNL     1       2.683  -3.184  -1.553  1.00  0.00     0.006 A   
ATOM     13  C22 UNL     1       3.101  -0.992  -2.440  1.00  0.00     0.039 A   
ATOM     14  C1  UNL     1       5.682  -1.722   0.277  1.00  0.00     0.047 C   
BRANCH  11  15
ATOM     15  O4  UNL     1       4.854   0.343  -1.650  1.00  0.00    -0.361 OA  
ATOM     16  H29 UNL     1       5.717   0.247  -1.214  1.00  0.00     0.218 HD  
ENDBRANCH  11  15
ENDBRANCH   7   8
BRANCH   7  17
ATOM     17  C7  UNL     1       0.537  -3.646  -3.679  1.00  0.00     0.185 C   
BRANCH  17  18
ATOM     18  O1  UNL     1      -0.119  -4.218  -2.545  1.00  0.00    -0.394 OA  
ATOM     19  H9  UNL     1      -0.455  -5.091  -2.822  1.00  0.00     0.210 HD  
ENDBRANCH  17  18
ENDBRANCH   7  17
ENDBRANCH   1   7
BRANCH   3  20
ATOM     20  C10 UNL     1      -2.043   0.686  -0.811  1.00  0.00     0.117 C   
BRANCH  20  21
ATOM     21  N2  UNL     1      -1.889   2.179  -0.985  1.00  0.00     0.249 N   
ATOM     22  H12 UNL     1      -2.552   2.682  -0.390  1.00  0.00     0.199 HD  
ATOM     23  H13 UNL     1      -2.130   2.384  -1.964  1.00  0.00     0.199 HD  
BRANCH  21  24
ATOM     24  C11 UNL     1      -0.514   2.729  -0.753  1.00  0.00     0.164 C   
BRANCH  24  25
ATOM     25  C12 UNL     1      -0.030   2.533   0.658  1.00  0.00    -0.002 A   
ATOM     26  C13 UNL     1       0.969   1.565   0.941  1.00  0.00     0.012 A   
ATOM     27  C17 UNL     1      -0.594   3.277   1.710  1.00  0.00     0.045 A   
ATOM     28  C14 UNL     1       1.392   1.330   2.254  1.00  0.00     0.037 A   
ATOM     29  C16 UNL     1      -0.152   3.022   2.992  1.00  0.00     0.109 A   
ATOM     30  C15 UNL     1       0.810   2.074   3.257  1.00  0.00     0.108 A   
ATOM     31  O2  UNL     1      -0.597   3.641   4.117  1.00  0.00    -0.316 OA  
ATOM     32  O3  UNL     1       1.088   1.975   4.583  1.00  0.00    -0.316 OA  
ATOM     33  C18 UNL     1       0.232   3.009   5.122  1.00  0.00     0.337 C   
ENDBRANCH  24  25
ENDBRANCH  21  24
ENDBRANCH  20  21
BRANCH  20  34
ATOM     34  C19 UNL     1      -3.540   0.287  -0.818  1.00  0.00     0.037 C   
ATOM     35  C20 UNL     1      -4.261   0.780   0.443  1.00  0.00     0.014 C   
ATOM     36  C21 UNL     1      -4.310   0.742  -2.061  1.00  0.00     0.014 C   
ENDBRANCH  20  34
ENDBRANCH   3  20
TORSDOF 10
