REMARK SMILES Cc1ccc([C@H](CO)n2cc([C@@H]([NH2+]Cc3ccc4c(c3)OCO4)C(C)C)nn2)cc1O
REMARK SMILES IDX 9 1 10 2 11 3 27 4 28 5 6 7 5 8 2 9 3 10 30 11 4 12 29 13
REMARK SMILES IDX 1 14 31 15 7 17 8 18 12 20 13 21 14 24 15 25 16 26 20 27
REMARK SMILES IDX 17 28 19 29 18 30 21 31 23 32 22 33 24 34 25 35 26 36
REMARK H PARENT 10 6 31 16 8 19 13 22 13 23
ROOT
ATOM     1   N1  UNL     1      -0.323  -1.481   1.649  1.00  0.00    -0.202 N   
ATOM     2   C8  UNL     1      -1.014  -1.356   0.472  1.00  0.00     0.046 A   
ATOM     3   C9  UNL     1      -0.092  -1.687  -0.494  1.00  0.00     0.127 A   
ATOM     4   N3  UNL     1       1.104  -1.987   0.105  1.00  0.00    -0.132 NA  
ATOM     5   N4  UNL     1       0.953  -1.857   1.413  1.00  0.00    -0.075 NA  
ATOM     6   H10 UNL     1      -2.052  -1.055   0.441  1.00  0.00     0.083 HD  
ENDROOT
BRANCH   1   7
ATOM     7   C6  UNL     1      -0.814  -1.224   3.005  1.00  0.00     0.155 C   
BRANCH   7   8
ATOM     8   C5  UNL     1      -0.138   0.011   3.577  1.00  0.00    -0.021 A   
ATOM     9   C2  UNL     1       1.082   2.367   4.584  1.00  0.00    -0.021 A   
ATOM     10  C3  UNL     1       1.698   1.117   4.731  1.00  0.00     0.006 A   
ATOM     11  C23 UNL     1      -0.146   2.421   3.921  1.00  0.00     0.074 A   
ATOM     12  C4  UNL     1       1.101  -0.045   4.230  1.00  0.00     0.006 A   
ATOM     13  C22 UNL     1      -0.749   1.266   3.422  1.00  0.00     0.039 A   
ATOM     14  C1  UNL     1       1.756   3.591   5.131  1.00  0.00     0.047 C   
BRANCH  11  15
ATOM     15  O4  UNL     1      -0.829   3.584   3.713  1.00  0.00    -0.361 OA  
ATOM     16  H29 UNL     1      -0.387   4.308   4.184  1.00  0.00     0.218 HD  
ENDBRANCH  11  15
ENDBRANCH   7   8
BRANCH   7  17
ATOM     17  C7  UNL     1      -0.720  -2.481   3.886  1.00  0.00     0.185 C   
BRANCH  17  18
ATOM     18  O1  UNL     1      -1.689  -3.446   3.468  1.00  0.00    -0.394 OA  
ATOM     19  H9  UNL     1      -1.626  -4.199   4.084  1.00  0.00     0.210 HD  
ENDBRANCH  17  18
ENDBRANCH   7  17
ENDBRANCH   1   7
BRANCH   3  20
ATOM     20  C10 UNL     1      -0.194  -1.709  -1.984  1.00  0.00     0.117 C   
BRANCH  20  21
ATOM     21  N2  UNL     1       1.145  -1.381  -2.601  1.00  0.00     0.249 N   
ATOM     22  H12 UNL     1       1.184  -1.681  -3.577  1.00  0.00     0.199 HD  
ATOM     23  H13 UNL     1       1.839  -1.938  -2.081  1.00  0.00     0.199 HD  
BRANCH  21  24
ATOM     24  C11 UNL     1       1.574   0.046  -2.509  1.00  0.00     0.164 C   
BRANCH  24  25
ATOM     25  C12 UNL     1       0.751   0.955  -3.380  1.00  0.00    -0.002 A   
ATOM     26  C13 UNL     1       0.874   0.903  -4.790  1.00  0.00     0.012 A   
ATOM     27  C17 UNL     1      -0.172   1.841  -2.799  1.00  0.00     0.045 A   
ATOM     28  C14 UNL     1       0.081   1.714  -5.610  1.00  0.00     0.037 A   
ATOM     29  C16 UNL     1      -0.937   2.626  -3.636  1.00  0.00     0.109 A   
ATOM     30  C15 UNL     1      -0.816   2.563  -5.002  1.00  0.00     0.108 A   
ATOM     31  O2  UNL     1      -1.877   3.523  -3.239  1.00  0.00    -0.316 OA  
ATOM     32  O3  UNL     1      -1.662   3.414  -5.637  1.00  0.00    -0.316 OA  
ATOM     33  C18 UNL     1      -2.317   4.043  -4.514  1.00  0.00     0.337 C   
ENDBRANCH  24  25
ENDBRANCH  21  24
ENDBRANCH  20  21
BRANCH  20  34
ATOM     34  C19 UNL     1      -0.714  -3.070  -2.520  1.00  0.00     0.037 C   
ATOM     35  C20 UNL     1       0.261  -4.236  -2.324  1.00  0.00     0.014 C   
ATOM     36  C21 UNL     1      -1.116  -2.978  -3.997  1.00  0.00     0.014 C   
ENDBRANCH  20  34
ENDBRANCH   3  20
TORSDOF 10
