REMARK SMILES CC(C)C[C@H]([NH2+]Cc1ccc2c(c1)OCO2)c1cn(CCc2ccsc2)nn1
REMARK SMILES IDX 17 1 18 2 19 3 27 4 28 5 5 7 4 8 2 9 1 10 3 11 6 12 7 15
REMARK SMILES IDX 8 16 9 17 13 18 10 19 12 20 11 21 14 22 16 23 15 24 20 25
REMARK SMILES IDX 21 26 22 27 23 28 26 29 24 30 25 31
REMARK H PARENT 18 6 6 13 6 14
ROOT
ATOM     1   C14 UNL     1       0.528  -1.738  -0.228  1.00  0.00     0.127 A   
ATOM     2   C15 UNL     1       0.479  -2.357   1.001  1.00  0.00     0.045 A   
ATOM     3   N2  UNL     1       1.729  -2.156   1.518  1.00  0.00    -0.212 N   
ATOM     4   N3  UNL     1       2.506  -1.478   0.654  1.00  0.00    -0.076 NA  
ATOM     5   N4  UNL     1       1.780  -1.213  -0.420  1.00  0.00    -0.132 NA  
ATOM     6   H20 UNL     1      -0.303  -2.859   1.553  1.00  0.00     0.083 HD  
ENDROOT
BRANCH   1   7
ATOM     7   C5  UNL     1      -0.534  -1.490  -1.246  1.00  0.00     0.114 C   
BRANCH   7   8
ATOM     8   C4  UNL     1      -0.386  -2.383  -2.491  1.00  0.00     0.064 C   
BRANCH   8   9
ATOM     9   C2  UNL     1      -0.517  -3.898  -2.229  1.00  0.00    -0.012 C   
ATOM     10  C1  UNL     1      -0.269  -4.671  -3.528  1.00  0.00     0.007 C   
ATOM     11  C3  UNL     1      -1.886  -4.275  -1.660  1.00  0.00     0.007 C   
ENDBRANCH   8   9
ENDBRANCH   7   8
BRANCH   7  12
ATOM     12  N1  UNL     1      -0.453  -0.056  -1.714  1.00  0.00     0.249 N   
ATOM     13  H11 UNL     1      -0.989   0.089  -2.576  1.00  0.00     0.199 HD  
ATOM     14  H12 UNL     1       0.534   0.122  -1.952  1.00  0.00     0.199 HD  
BRANCH  12  15
ATOM     15  C6  UNL     1      -0.860   0.963  -0.706  1.00  0.00     0.164 C   
BRANCH  15  16
ATOM     16  C7  UNL     1      -0.664   2.350  -1.247  1.00  0.00    -0.002 A   
ATOM     17  C8  UNL     1      -1.741   3.053  -1.836  1.00  0.00     0.012 A   
ATOM     18  C12 UNL     1       0.611   2.941  -1.209  1.00  0.00     0.045 A   
ATOM     19  C9  UNL     1      -1.555   4.334  -2.370  1.00  0.00     0.037 A   
ATOM     20  C11 UNL     1       0.759   4.203  -1.745  1.00  0.00     0.109 A   
ATOM     21  C10 UNL     1      -0.293   4.881  -2.309  1.00  0.00     0.108 A   
ATOM     22  O1  UNL     1       1.917   4.914  -1.785  1.00  0.00    -0.316 OA  
ATOM     23  O2  UNL     1       0.068   6.105  -2.774  1.00  0.00    -0.316 OA  
ATOM     24  C13 UNL     1       1.466   6.134  -2.417  1.00  0.00     0.337 C   
ENDBRANCH  15  16
ENDBRANCH  12  15
ENDBRANCH   7  12
ENDBRANCH   1   7
BRANCH   3  25
ATOM     25  C16 UNL     1       2.207  -2.482   2.846  1.00  0.00     0.139 C   
BRANCH  25  26
ATOM     26  C17 UNL     1       2.370  -1.250   3.739  1.00  0.00     0.057 C   
BRANCH  26  27
ATOM     27  C18 UNL     1       1.099  -0.455   3.882  1.00  0.00    -0.039 A   
ATOM     28  C19 UNL     1      -0.003  -0.814   4.725  1.00  0.00     0.011 A   
ATOM     29  C21 UNL     1       0.838   0.726   3.210  1.00  0.00     0.049 A   
ATOM     30  C20 UNL     1      -1.051   0.076   4.633  1.00  0.00     0.046 A   
ATOM     31  S1  UNL     1      -0.721   1.344   3.536  1.00  0.00    -0.106 S   
ENDBRANCH  26  27
ENDBRANCH  25  26
ENDBRANCH   3  25
TORSDOF 9
