REMARK SMILES CC(C)C[C@H]([NH2+]Cc1ccc2c(c1)OCO2)c1cn(Cc2ccc(N)cn2)nn1
REMARK SMILES IDX 17 1 18 2 19 3 28 4 29 5 5 7 4 8 2 9 1 10 3 11 6 12 7 15
REMARK SMILES IDX 8 16 9 17 13 18 10 19 12 20 11 21 14 22 16 23 15 24 20 25
REMARK SMILES IDX 21 26 22 27 27 28 23 29 26 30 24 31 25 32
REMARK H PARENT 18 6 6 13 6 14 25 33 25 34
ROOT
ATOM     1   C14 UNL     1      -1.459  -0.412   0.862  1.00  0.00     0.127 A   
ATOM     2   C15 UNL     1      -2.548  -0.235   0.040  1.00  0.00     0.046 A   
ATOM     3   N2  UNL     1      -2.964   1.040   0.313  1.00  0.00    -0.206 N   
ATOM     4   N5  UNL     1      -2.192   1.605   1.262  1.00  0.00    -0.076 NA  
ATOM     5   N6  UNL     1      -1.268   0.723   1.609  1.00  0.00    -0.132 NA  
ATOM     6   H20 UNL     1      -3.030  -0.847  -0.710  1.00  0.00     0.083 HD  
ENDROOT
BRANCH   1   7
ATOM     7   C5  UNL     1      -0.502  -1.552   0.993  1.00  0.00     0.114 C   
BRANCH   7   8
ATOM     8   C4  UNL     1      -0.932  -2.496   2.134  1.00  0.00     0.064 C   
BRANCH   8   9
ATOM     9   C2  UNL     1      -0.062  -3.752   2.354  1.00  0.00    -0.012 C   
ATOM     10  C1  UNL     1      -0.654  -4.593   3.490  1.00  0.00     0.007 C   
ATOM     11  C3  UNL     1       0.068  -4.607   1.094  1.00  0.00     0.007 C   
ENDBRANCH   8   9
ENDBRANCH   7   8
BRANCH   7  12
ATOM     12  N1  UNL     1       0.881  -1.033   1.270  1.00  0.00     0.249 N   
ATOM     13  H11 UNL     1       1.508  -1.768   1.606  1.00  0.00     0.199 HD  
ATOM     14  H12 UNL     1       0.796  -0.348   2.035  1.00  0.00     0.199 HD  
BRANCH  12  15
ATOM     15  C6  UNL     1       1.537  -0.339   0.125  1.00  0.00     0.164 C   
BRANCH  15  16
ATOM     16  C7  UNL     1       2.892   0.168   0.529  1.00  0.00    -0.002 A   
ATOM     17  C8  UNL     1       3.023   1.446   1.124  1.00  0.00     0.012 A   
ATOM     18  C12 UNL     1       4.029  -0.643   0.373  1.00  0.00     0.045 A   
ATOM     19  C9  UNL     1       4.271   1.918   1.545  1.00  0.00     0.037 A   
ATOM     20  C11 UNL     1       5.243  -0.148   0.800  1.00  0.00     0.109 A   
ATOM     21  C10 UNL     1       5.362   1.096   1.369  1.00  0.00     0.108 A   
ATOM     22  O1  UNL     1       6.433  -0.801   0.725  1.00  0.00    -0.316 OA  
ATOM     23  O2  UNL     1       6.641   1.385   1.720  1.00  0.00    -0.316 OA  
ATOM     24  C13 UNL     1       7.324   0.189   1.288  1.00  0.00     0.337 C   
ENDBRANCH  15  16
ENDBRANCH  12  15
ENDBRANCH   7  12
ENDBRANCH   1   7
BRANCH   3  25
ATOM     25  C16 UNL     1      -4.054   1.776  -0.298  1.00  0.00     0.190 C   
BRANCH  25  26
ATOM     26  C17 UNL     1      -3.602   2.362  -1.607  1.00  0.00     0.060 A   
ATOM     27  C18 UNL     1      -3.123   3.668  -1.675  1.00  0.00     0.027 A   
ATOM     28  N4  UNL     1      -3.632   1.546  -2.690  1.00  0.00    -0.258 NA  
ATOM     29  C19 UNL     1      -2.688   4.165  -2.904  1.00  0.00     0.026 A   
ATOM     30  C21 UNL     1      -3.209   2.068  -3.869  1.00  0.00     0.134 A   
ATOM     31  C20 UNL     1      -2.773   3.379  -4.050  1.00  0.00     0.042 A   
BRANCH  31  32
ATOM     32  N3  UNL     1      -2.222   3.819  -5.257  1.00  0.00    -0.357 N   
ATOM     33  H25 UNL     1      -2.221   4.830  -5.369  1.00  0.00     0.143 HD  
ATOM     34  H26 UNL     1      -2.591   3.354  -6.083  1.00  0.00     0.143 HD  
ENDBRANCH  31  32
ENDBRANCH  25  26
ENDBRANCH   3  25
TORSDOF 9
