REMARK SMILES CC(C)C[C@H]([NH2+]Cc1ccc2c(c1)OCO2)c1cn(CC(=O)c2ccccc2F)nn1
REMARK SMILES IDX 17 1 18 2 19 3 30 4 31 5 5 7 4 8 2 9 1 10 3 11 6 12 7 15
REMARK SMILES IDX 8 16 9 17 13 18 10 19 12 20 11 21 14 22 16 23 15 24 20 25
REMARK SMILES IDX 21 26 22 27 23 28 24 29 28 30 25 31 27 32 26 33 29 34
REMARK H PARENT 18 6 6 13 6 14
ROOT
ATOM     1   C14 UNL     1      -0.025   0.671  -1.045  1.00  0.00     0.127 A   
ATOM     2   C15 UNL     1      -0.071  -0.372  -1.947  1.00  0.00     0.046 A   
ATOM     3   N2  UNL     1       1.244  -0.607  -2.233  1.00  0.00    -0.204 N   
ATOM     4   N3  UNL     1       2.045   0.278  -1.607  1.00  0.00    -0.076 NA  
ATOM     5   N4  UNL     1       1.278   1.061  -0.868  1.00  0.00    -0.132 NA  
ATOM     6   H20 UNL     1      -0.869  -0.995  -2.332  1.00  0.00     0.083 HD  
ENDROOT
BRANCH   1   7
ATOM     7   C5  UNL     1      -1.089   1.272  -0.194  1.00  0.00     0.114 C   
BRANCH   7   8
ATOM     8   C4  UNL     1      -1.289   2.777  -0.451  1.00  0.00     0.064 C   
BRANCH   8   9
ATOM     9   C2  UNL     1      -1.833   3.133  -1.851  1.00  0.00    -0.012 C   
ATOM     10  C1  UNL     1      -3.207   2.511  -2.116  1.00  0.00     0.007 C   
ATOM     11  C3  UNL     1      -1.920   4.657  -1.993  1.00  0.00     0.007 C   
ENDBRANCH   8   9
ENDBRANCH   7   8
BRANCH   7  12
ATOM     12  N1  UNL     1      -0.717   1.117   1.263  1.00  0.00     0.249 N   
ATOM     13  H11 UNL     1      -1.364   1.645   1.858  1.00  0.00     0.199 HD  
ATOM     14  H12 UNL     1       0.213   1.541   1.393  1.00  0.00     0.199 HD  
BRANCH  12  15
ATOM     15  C6  UNL     1      -0.638  -0.290   1.754  1.00  0.00     0.164 C   
BRANCH  15  16
ATOM     16  C7  UNL     1      -0.558  -0.316   3.257  1.00  0.00    -0.002 A   
ATOM     17  C8  UNL     1      -1.736  -0.453   4.029  1.00  0.00     0.012 A   
ATOM     18  C12 UNL     1       0.683  -0.171   3.903  1.00  0.00     0.045 A   
ATOM     19  C9  UNL     1      -1.685  -0.429   5.428  1.00  0.00     0.037 A   
ATOM     20  C11 UNL     1       0.697  -0.153   5.283  1.00  0.00     0.109 A   
ATOM     21  C10 UNL     1      -0.454  -0.266   6.025  1.00  0.00     0.108 A   
ATOM     22  O1  UNL     1       1.805  -0.016   6.059  1.00  0.00    -0.316 OA  
ATOM     23  O2  UNL     1      -0.218  -0.209   7.361  1.00  0.00    -0.316 OA  
ATOM     24  C13 UNL     1       1.220  -0.077   7.382  1.00  0.00     0.337 C   
ENDBRANCH  15  16
ENDBRANCH  12  15
ENDBRANCH   7  12
ENDBRANCH   1   7
BRANCH   3  25
ATOM     25  C16 UNL     1       1.820  -1.709  -2.977  1.00  0.00     0.215 C   
BRANCH  25  26
ATOM     26  C17 UNL     1       2.207  -2.818  -2.024  1.00  0.00     0.185 C   
ATOM     27  O3  UNL     1       1.584  -3.092  -0.998  1.00  0.00    -0.292 OA  
BRANCH  26  28
ATOM     28  C18 UNL     1       3.400  -3.599  -2.376  1.00  0.00     0.055 A   
ATOM     29  C19 UNL     1       4.494  -3.624  -1.504  1.00  0.00     0.015 A   
ATOM     30  C23 UNL     1       3.436  -4.296  -3.585  1.00  0.00     0.134 A   
ATOM     31  C20 UNL     1       5.637  -4.336  -1.869  1.00  0.00     0.001 A   
ATOM     32  C22 UNL     1       4.566  -5.024  -3.941  1.00  0.00     0.040 A   
ATOM     33  C21 UNL     1       5.674  -5.029  -3.088  1.00  0.00     0.003 A   
ATOM     34  F1  UNL     1       2.374  -4.292  -4.406  1.00  0.00    -0.206 F   
ENDBRANCH  26  28
ENDBRANCH  25  26
ENDBRANCH   3  25
TORSDOF 9
