REMARK SMILES CC(C)C[C@H]([NH2+]Cc1ccc2c(c1)OCO2)c1cn(CCc2cccnc2F)nn1
REMARK SMILES IDX 17 1 18 2 19 3 29 4 30 5 5 7 4 8 2 9 1 10 3 11 6 12 7 15
REMARK SMILES IDX 8 16 9 17 13 18 10 19 12 20 11 21 14 22 16 23 15 24 20 25
REMARK SMILES IDX 21 26 22 27 23 28 27 29 24 30 26 31 25 32 28 33
REMARK H PARENT 18 6 6 13 6 14
ROOT
ATOM     1   C14 UNL     1       0.627   1.201   0.355  1.00  0.00     0.127 A   
ATOM     2   C15 UNL     1       1.955   1.485   0.584  1.00  0.00     0.045 A   
ATOM     3   N2  UNL     1       2.057   1.481   1.948  1.00  0.00    -0.212 N   
ATOM     4   N4  UNL     1       0.859   1.278   2.522  1.00  0.00    -0.076 NA  
ATOM     5   N5  UNL     1      -0.026   1.096   1.556  1.00  0.00    -0.132 NA  
ATOM     6   H20 UNL     1       2.811   1.615  -0.063  1.00  0.00     0.083 HD  
ENDROOT
BRANCH   1   7
ATOM     7   C5  UNL     1      -0.117   0.913  -0.909  1.00  0.00     0.114 C   
BRANCH   7   8
ATOM     8   C4  UNL     1      -0.989   2.116  -1.318  1.00  0.00     0.064 C   
BRANCH   8   9
ATOM     9   C2  UNL     1      -1.763   1.984  -2.647  1.00  0.00    -0.012 C   
ATOM     10  C1  UNL     1      -0.849   1.679  -3.834  1.00  0.00     0.007 C   
ATOM     11  C3  UNL     1      -2.544   3.275  -2.916  1.00  0.00     0.007 C   
ENDBRANCH   8   9
ENDBRANCH   7   8
BRANCH   7  12
ATOM     12  N1  UNL     1      -0.990  -0.295  -0.712  1.00  0.00     0.249 N   
ATOM     13  H11 UNL     1      -1.744  -0.350  -1.400  1.00  0.00     0.199 HD  
ATOM     14  H12 UNL     1      -1.445  -0.185   0.207  1.00  0.00     0.199 HD  
BRANCH  12  15
ATOM     15  C6  UNL     1      -0.268  -1.600  -0.694  1.00  0.00     0.164 C   
BRANCH  15  16
ATOM     16  C7  UNL     1      -1.221  -2.720  -0.385  1.00  0.00    -0.002 A   
ATOM     17  C8  UNL     1      -1.425  -3.126   0.955  1.00  0.00     0.012 A   
ATOM     18  C12 UNL     1      -1.956  -3.331  -1.415  1.00  0.00     0.045 A   
ATOM     19  C9  UNL     1      -2.341  -4.135   1.268  1.00  0.00     0.037 A   
ATOM     20  C11 UNL     1      -2.852  -4.322  -1.071  1.00  0.00     0.109 A   
ATOM     21  C10 UNL     1      -3.039  -4.713   0.232  1.00  0.00     0.108 A   
ATOM     22  O1  UNL     1      -3.639  -5.010  -1.939  1.00  0.00    -0.316 OA  
ATOM     23  O2  UNL     1      -3.966  -5.699   0.348  1.00  0.00    -0.316 OA  
ATOM     24  C13 UNL     1      -4.328  -5.903  -1.034  1.00  0.00     0.337 C   
ENDBRANCH  15  16
ENDBRANCH  12  15
ENDBRANCH   7  12
ENDBRANCH   1   7
BRANCH   3  25
ATOM     25  C16 UNL     1       3.261   1.514   2.753  1.00  0.00     0.139 C   
BRANCH  25  26
ATOM     26  C17 UNL     1       3.695   0.124   3.236  1.00  0.00     0.061 C   
BRANCH  26  27
ATOM     27  C18 UNL     1       4.064  -0.802   2.106  1.00  0.00     0.009 A   
ATOM     28  C19 UNL     1       5.343  -0.802   1.546  1.00  0.00     0.010 A   
ATOM     29  C22 UNL     1       3.117  -1.647   1.531  1.00  0.00     0.216 A   
ATOM     30  C20 UNL     1       5.613  -1.624   0.455  1.00  0.00     0.021 A   
ATOM     31  N3  UNL     1       3.331  -2.413   0.440  1.00  0.00    -0.228 NA  
ATOM     32  C21 UNL     1       4.586  -2.402  -0.057  1.00  0.00     0.114 A   
ATOM     33  F1  UNL     1       1.873  -1.667   2.034  1.00  0.00    -0.185 F   
ENDBRANCH  26  27
ENDBRANCH  25  26
ENDBRANCH   3  25
TORSDOF 9
