REMARK SMILES Cc1c(CCn2cc([C@H](CC(C)C)[NH2+]Cc3ccc4c(c3)OCO4)nn2)cnn1C
REMARK SMILES IDX 6 1 7 2 8 3 25 4 26 5 5 7 4 8 3 9 2 10 29 11 27 12 28 13
REMARK SMILES IDX 1 14 30 15 9 16 10 17 11 18 12 19 13 20 14 21 15 24 16 25
REMARK SMILES IDX 17 26 21 27 18 28 20 29 19 30 22 31 24 32 23 33
REMARK H PARENT 7 6 14 22 14 23
ROOT
ATOM     1   N1  UNL     1       2.147   1.667  -2.919  1.00  0.00    -0.212 N   
ATOM     2   C6  UNL     1       0.805   1.606  -2.652  1.00  0.00     0.045 A   
ATOM     3   C7  UNL     1       0.718   2.003  -1.334  1.00  0.00     0.127 A   
ATOM     4   N3  UNL     1       1.941   2.469  -0.927  1.00  0.00    -0.132 NA  
ATOM     5   N4  UNL     1       2.806   2.268  -1.912  1.00  0.00    -0.076 NA  
ATOM     6   H8  UNL     1       0.106   1.139  -3.329  1.00  0.00     0.083 HD  
ENDROOT
BRANCH   1   7
ATOM     7   C5  UNL     1       2.861   0.861  -3.895  1.00  0.00     0.139 C   
BRANCH   7   8
ATOM     8   C4  UNL     1       3.411  -0.450  -3.290  1.00  0.00     0.060 C   
BRANCH   8   9
ATOM     9   C3  UNL     1       2.401  -1.163  -2.438  1.00  0.00    -0.008 A   
ATOM     10  C2  UNL     1       1.357  -1.994  -2.802  1.00  0.00     0.029 A   
ATOM     11  N6  UNL     1       0.666  -2.252  -1.639  1.00  0.00    -0.233 N   
ATOM     12  C21 UNL     1       2.260  -1.018  -1.039  1.00  0.00     0.136 A   
ATOM     13  N5  UNL     1       1.099  -1.507  -0.589  1.00  0.00    -0.190 NA  
ATOM     14  C1  UNL     1       0.962  -2.554  -4.122  1.00  0.00     0.064 C   
ATOM     15  C22 UNL     1      -0.469  -3.134  -1.473  1.00  0.00     0.159 C   
ENDBRANCH   8   9
ENDBRANCH   7   8
ENDBRANCH   1   7
BRANCH   3  16
ATOM     16  C8  UNL     1      -0.413   1.837  -0.371  1.00  0.00     0.114 C   
BRANCH  16  17
ATOM     17  C9  UNL     1      -0.883   3.177   0.227  1.00  0.00     0.064 C   
BRANCH  17  18
ATOM     18  C10 UNL     1      -2.071   3.105   1.210  1.00  0.00    -0.012 C   
ATOM     19  C11 UNL     1      -2.384   4.506   1.740  1.00  0.00     0.007 C   
ATOM     20  C12 UNL     1      -3.326   2.507   0.575  1.00  0.00     0.007 C   
ENDBRANCH  17  18
ENDBRANCH  16  17
BRANCH  16  21
ATOM     21  N2  UNL     1      -0.117   0.805   0.686  1.00  0.00     0.249 N   
ATOM     22  H19 UNL     1       0.251  -0.050   0.211  1.00  0.00     0.199 HD  
ATOM     23  H20 UNL     1      -0.985   0.495   1.131  1.00  0.00     0.199 HD  
BRANCH  21  24
ATOM     24  C13 UNL     1       0.880   1.133   1.744  1.00  0.00     0.164 C   
BRANCH  24  25
ATOM     25  C14 UNL     1       0.862   0.093   2.838  1.00  0.00    -0.002 A   
ATOM     26  C15 UNL     1       1.844  -0.925   2.875  1.00  0.00     0.012 A   
ATOM     27  C19 UNL     1      -0.157   0.101   3.808  1.00  0.00     0.045 A   
ATOM     28  C16 UNL     1       1.825  -1.911   3.866  1.00  0.00     0.037 A   
ATOM     29  C18 UNL     1      -0.147  -0.885   4.774  1.00  0.00     0.109 A   
ATOM     30  C17 UNL     1       0.816  -1.862   4.805  1.00  0.00     0.108 A   
ATOM     31  O1  UNL     1      -1.054  -1.016   5.780  1.00  0.00    -0.316 OA  
ATOM     32  O2  UNL     1       0.642  -2.730   5.835  1.00  0.00    -0.316 OA  
ATOM     33  C20 UNL     1      -0.515  -2.160   6.482  1.00  0.00     0.337 C   
ENDBRANCH  24  25
ENDBRANCH  21  24
ENDBRANCH  16  21
ENDBRANCH   3  16
TORSDOF 9
