REMARK SMILES O=C(Cn1cc([C@@H]([NH2+]Cc2ccc3c(c2)OCO3)C2CCCCC2)nn1)c1ccc(F)cc1F
REMARK SMILES IDX 4 1 5 2 6 3 25 4 26 5 3 7 2 8 1 9 27 10 28 11 33 12 29 13
REMARK SMILES IDX 32 14 30 15 34 16 31 17 7 18 8 19 9 22 10 23 11 24 15 25
REMARK SMILES IDX 12 26 14 27 13 28 16 29 18 30 17 31 19 32 20 33 24 34 21 35
REMARK SMILES IDX 23 36 22 37
REMARK H PARENT 5 6 8 20 8 21
ROOT
ATOM     1   N1  UNL     1      -1.074   0.927   0.744  1.00  0.00    -0.204 N   
ATOM     2   C3  UNL     1      -0.240   0.230  -0.086  1.00  0.00     0.046 A   
ATOM     3   C4  UNL     1       0.455  -0.605   0.761  1.00  0.00     0.127 A   
ATOM     4   N3  UNL     1       0.026  -0.402   2.048  1.00  0.00    -0.132 NA  
ATOM     5   N4  UNL     1      -0.910   0.531   2.024  1.00  0.00    -0.076 NA  
ATOM     6   H3  UNL     1      -0.187   0.407  -1.152  1.00  0.00     0.083 HD  
ENDROOT
BRANCH   1   7
ATOM     7   C2  UNL     1      -2.039   1.967   0.454  1.00  0.00     0.215 C   
BRANCH   7   8
ATOM     8   C1  UNL     1      -1.865   2.594  -0.906  1.00  0.00     0.185 C   
ATOM     9   O1  UNL     1      -0.849   3.209  -1.223  1.00  0.00    -0.292 OA  
BRANCH   8  10
ATOM     10  C20 UNL     1      -2.963   2.490  -1.896  1.00  0.00     0.055 A   
ATOM     11  C21 UNL     1      -3.229   3.582  -2.733  1.00  0.00     0.018 A   
ATOM     12  C25 UNL     1      -3.697   1.312  -2.042  1.00  0.00     0.136 A   
ATOM     13  C22 UNL     1      -4.250   3.493  -3.681  1.00  0.00     0.040 A   
ATOM     14  C24 UNL     1      -4.712   1.218  -2.988  1.00  0.00     0.079 A   
ATOM     15  C23 UNL     1      -4.982   2.314  -3.797  1.00  0.00     0.126 A   
ATOM     16  F2  UNL     1      -3.407   0.235  -1.302  1.00  0.00    -0.206 F   
ATOM     17  F1  UNL     1      -5.950   2.230  -4.717  1.00  0.00    -0.207 F   
ENDBRANCH   8  10
ENDBRANCH   7   8
ENDBRANCH   1   7
BRANCH   3  18
ATOM     18  C5  UNL     1       1.616  -1.522   0.526  1.00  0.00     0.117 C   
BRANCH  18  19
ATOM     19  N2  UNL     1       2.601  -1.286   1.665  1.00  0.00     0.249 N   
ATOM     20  H5  UNL     1       2.823  -2.156   2.154  1.00  0.00     0.199 HD  
ATOM     21  H6  UNL     1       2.083  -0.734   2.369  1.00  0.00     0.199 HD  
BRANCH  19  22
ATOM     22  C6  UNL     1       3.851  -0.550   1.328  1.00  0.00     0.164 C   
BRANCH  22  23
ATOM     23  C7  UNL     1       3.623   0.766   0.635  1.00  0.00    -0.002 A   
ATOM     24  C8  UNL     1       4.091   0.960  -0.687  1.00  0.00     0.012 A   
ATOM     25  C12 UNL     1       2.913   1.800   1.273  1.00  0.00     0.045 A   
ATOM     26  C9  UNL     1       3.835   2.149  -1.375  1.00  0.00     0.037 A   
ATOM     27  C11 UNL     1       2.668   2.955   0.562  1.00  0.00     0.109 A   
ATOM     28  C10 UNL     1       3.114   3.125  -0.726  1.00  0.00     0.108 A   
ATOM     29  O2  UNL     1       1.972   4.027   1.016  1.00  0.00    -0.316 OA  
ATOM     30  O3  UNL     1       2.761   4.328  -1.244  1.00  0.00    -0.316 OA  
ATOM     31  C13 UNL     1       2.024   4.895  -0.140  1.00  0.00     0.337 C   
ENDBRANCH  22  23
ENDBRANCH  19  22
ENDBRANCH  18  19
BRANCH  18  32
ATOM     32  C14 UNL     1       1.218  -3.025   0.495  1.00  0.00     0.043 C   
ATOM     33  C15 UNL     1       2.421  -3.967   0.255  1.00  0.00     0.010 C   
ATOM     34  C19 UNL     1       0.147  -3.335  -0.576  1.00  0.00     0.010 C   
ATOM     35  C16 UNL     1       2.984  -3.869  -1.163  1.00  0.00     0.001 C   
ATOM     36  C18 UNL     1       0.685  -3.216  -2.002  1.00  0.00     0.001 C   
ATOM     37  C17 UNL     1       1.906  -4.105  -2.216  1.00  0.00     0.000 C   
ENDBRANCH  18  32
ENDBRANCH   3  18
TORSDOF 8
