REMARK SMILES Cc1cc([C@H](O)Cn2cc([C@@H]([NH2+]Cc3ccc4c(c3)OCO4)C(C)C)nn2)cs1
REMARK SMILES IDX 8 1 9 2 10 3 26 4 27 5 7 7 5 8 4 9 2 10 3 11 29 12 28 13
REMARK SMILES IDX 1 14 6 15 11 17 12 18 13 21 14 22 15 23 19 24 16 25 18 26
REMARK SMILES IDX 17 27 20 28 22 29 21 30 23 31 24 32 25 33
REMARK H PARENT 9 6 6 16 12 19 12 20
ROOT
ATOM     1   N1  UNL     1       0.512  -0.227  -2.255  1.00  0.00    -0.209 N   
ATOM     2   C7  UNL     1      -0.633  -0.538  -1.576  1.00  0.00     0.045 A   
ATOM     3   C8  UNL     1      -0.228  -0.614  -0.262  1.00  0.00     0.127 A   
ATOM     4   N3  UNL     1       1.128  -0.408  -0.199  1.00  0.00    -0.132 NA  
ATOM     5   N4  UNL     1       1.570  -0.187  -1.425  1.00  0.00    -0.076 NA  
ATOM     6   H9  UNL     1      -1.592  -0.629  -2.067  1.00  0.00     0.083 HD  
ENDROOT
BRANCH   1   7
ATOM     7   C6  UNL     1       0.663   0.069  -3.661  1.00  0.00     0.170 C   
BRANCH   7   8
ATOM     8   C5  UNL     1       0.920   1.555  -3.935  1.00  0.00     0.164 C   
BRANCH   8   9
ATOM     9   C4  UNL     1      -0.190   2.441  -3.425  1.00  0.00    -0.010 A   
ATOM     10  C2  UNL     1      -2.307   3.456  -3.363  1.00  0.00    -0.014 A   
ATOM     11  C3  UNL     1      -1.471   2.602  -4.053  1.00  0.00     0.017 A   
ATOM     12  S1  UNL     1      -1.556   4.064  -1.956  1.00  0.00    -0.102 S   
ATOM     13  C21 UNL     1      -0.115   3.206  -2.276  1.00  0.00     0.052 A   
ATOM     14  C1  UNL     1      -3.694   3.870  -3.722  1.00  0.00     0.052 C   
ENDBRANCH   8   9
BRANCH   8  15
ATOM     15  O1  UNL     1       1.083   1.721  -5.347  1.00  0.00    -0.387 OA  
ATOM     16  H6  UNL     1       1.175   2.677  -5.510  1.00  0.00     0.211 HD  
ENDBRANCH   8  15
ENDBRANCH   7   8
ENDBRANCH   1   7
BRANCH   3  17
ATOM     17  C9  UNL     1      -0.988  -0.900   0.994  1.00  0.00     0.117 C   
BRANCH  17  18
ATOM     18  N2  UNL     1      -0.075  -1.540   2.012  1.00  0.00     0.249 N   
ATOM     19  H11 UNL     1      -0.449  -1.450   2.962  1.00  0.00     0.199 HD  
ATOM     20  H12 UNL     1       0.809  -1.010   1.996  1.00  0.00     0.199 HD  
BRANCH  18  21
ATOM     21  C10 UNL     1       0.265  -2.966   1.753  1.00  0.00     0.164 C   
BRANCH  21  22
ATOM     22  C11 UNL     1       1.218  -3.474   2.797  1.00  0.00    -0.002 A   
ATOM     23  C12 UNL     1       2.615  -3.336   2.611  1.00  0.00     0.012 A   
ATOM     24  C16 UNL     1       0.729  -4.036   3.988  1.00  0.00     0.045 A   
ATOM     25  C13 UNL     1       3.515  -3.762   3.594  1.00  0.00     0.037 A   
ATOM     26  C15 UNL     1       1.644  -4.443   4.937  1.00  0.00     0.109 A   
ATOM     27  C14 UNL     1       2.998  -4.311   4.746  1.00  0.00     0.108 A   
ATOM     28  O2  UNL     1       1.340  -4.999   6.139  1.00  0.00    -0.316 OA  
ATOM     29  O3  UNL     1       3.716  -4.769   5.803  1.00  0.00    -0.316 OA  
ATOM     30  C17 UNL     1       2.663  -5.226   6.678  1.00  0.00     0.337 C   
ENDBRANCH  21  22
ENDBRANCH  18  21
ENDBRANCH  17  18
BRANCH  17  31
ATOM     31  C18 UNL     1      -1.636   0.352   1.641  1.00  0.00     0.037 C   
ATOM     32  C19 UNL     1      -0.642   1.470   1.978  1.00  0.00     0.014 C   
ATOM     33  C20 UNL     1      -2.772   0.912   0.777  1.00  0.00     0.014 C   
ENDBRANCH  17  31
ENDBRANCH   3  17
TORSDOF 9
