REMARK SMILES Cc1cc([C@@H](O)Cn2cc([C@@H]([NH2+]Cc3ccc4c(c3)OCO4)C(C)C)nn2)cs1
REMARK SMILES IDX 8 1 9 2 10 3 26 4 27 5 7 7 5 8 4 9 2 10 3 11 29 12 28 13
REMARK SMILES IDX 1 14 6 15 11 17 12 18 13 21 14 22 15 23 19 24 16 25 18 26
REMARK SMILES IDX 17 27 20 28 22 29 21 30 23 31 24 32 25 33
REMARK H PARENT 9 6 6 16 12 19 12 20
ROOT
ATOM     1   N1  UNL     1      -2.238  -1.802  -0.163  1.00  0.00    -0.209 N   
ATOM     2   C7  UNL     1      -1.203  -1.943   0.719  1.00  0.00     0.045 A   
ATOM     3   C8  UNL     1      -0.957  -0.659   1.149  1.00  0.00     0.127 A   
ATOM     4   N3  UNL     1      -1.835   0.197   0.534  1.00  0.00    -0.132 NA  
ATOM     5   N4  UNL     1      -2.620  -0.516  -0.257  1.00  0.00    -0.076 NA  
ATOM     6   H9  UNL     1      -0.735  -2.898   0.917  1.00  0.00     0.083 HD  
ENDROOT
BRANCH   1   7
ATOM     7   C6  UNL     1      -2.823  -2.811  -1.016  1.00  0.00     0.170 C   
BRANCH   7   8
ATOM     8   C5  UNL     1      -2.559  -2.564  -2.507  1.00  0.00     0.164 C   
BRANCH   8   9
ATOM     9   C4  UNL     1      -1.089  -2.420  -2.824  1.00  0.00    -0.010 A   
ATOM     10  C2  UNL     1       1.131  -3.086  -3.188  1.00  0.00    -0.014 A   
ATOM     11  C3  UNL     1      -0.153  -3.505  -2.911  1.00  0.00     0.017 A   
ATOM     12  S1  UNL     1       1.222  -1.385  -3.323  1.00  0.00    -0.102 S   
ATOM     13  C21 UNL     1      -0.456  -1.213  -3.060  1.00  0.00     0.052 A   
ATOM     14  C1  UNL     1       2.357  -3.916  -3.373  1.00  0.00     0.052 C   
ENDBRANCH   8   9
BRANCH   8  15
ATOM     15  O1  UNL     1      -3.123  -3.653  -3.243  1.00  0.00    -0.387 OA  
ATOM     16  H6  UNL     1      -2.947  -3.476  -4.186  1.00  0.00     0.211 HD  
ENDBRANCH   8  15
ENDBRANCH   7   8
ENDBRANCH   1   7
BRANCH   3  17
ATOM     17  C9  UNL     1       0.114  -0.102   2.031  1.00  0.00     0.117 C   
BRANCH  17  18
ATOM     18  N2  UNL     1       0.599   1.209   1.464  1.00  0.00     0.249 N   
ATOM     19  H11 UNL     1      -0.242   1.739   1.188  1.00  0.00     0.199 HD  
ATOM     20  H12 UNL     1       1.079   1.775   2.171  1.00  0.00     0.199 HD  
BRANCH  18  21
ATOM     21  C10 UNL     1       1.462   1.091   0.255  1.00  0.00     0.164 C   
BRANCH  21  22
ATOM     22  C11 UNL     1       1.741   2.446  -0.328  1.00  0.00    -0.002 A   
ATOM     23  C12 UNL     1       2.884   3.181   0.068  1.00  0.00     0.012 A   
ATOM     24  C16 UNL     1       0.832   3.014  -1.238  1.00  0.00     0.045 A   
ATOM     25  C13 UNL     1       3.127   4.460  -0.444  1.00  0.00     0.037 A   
ATOM     26  C15 UNL     1       1.103   4.276  -1.724  1.00  0.00     0.109 A   
ATOM     27  C14 UNL     1       2.217   4.979  -1.338  1.00  0.00     0.108 A   
ATOM     28  O2  UNL     1       0.335   4.963  -2.609  1.00  0.00    -0.316 OA  
ATOM     29  O3  UNL     1       2.292   6.199  -1.933  1.00  0.00    -0.316 OA  
ATOM     30  C17 UNL     1       1.105   6.178  -2.756  1.00  0.00     0.337 C   
ENDBRANCH  21  22
ENDBRANCH  18  21
ENDBRANCH  17  18
BRANCH  17  31
ATOM     31  C18 UNL     1      -0.320   0.122   3.501  1.00  0.00     0.037 C   
ATOM     32  C19 UNL     1      -1.485   1.102   3.676  1.00  0.00     0.014 C   
ATOM     33  C20 UNL     1      -0.651  -1.204   4.197  1.00  0.00     0.014 C   
ENDBRANCH  17  31
ENDBRANCH   3  17
TORSDOF 9
