REMARK SMILES CC(C)(C)[C@H]([NH2+]Cc1ccc2c(c1)OCO2)c1cn(-c2cncc(Cl)c2)nn1
REMARK SMILES IDX 5 1 2 2 1 3 3 4 4 5 6 6 7 9 8 10 9 11 13 12 10 13 12 14
REMARK SMILES IDX 11 15 14 16 16 17 15 18 17 19 18 20 28 21 19 22 27 23 20 24
REMARK SMILES IDX 21 25 26 26 22 27 24 28 23 29 25 30
REMARK H PARENT 6 7 6 8
ROOT
ATOM     1   C5  UNL     1       1.793   0.793  -0.657  1.00  0.00     0.120 C   
ENDROOT
BRANCH   1   2
ATOM     2   C2  UNL     1       2.829   0.663  -1.825  1.00  0.00     0.010 C   
ATOM     3   C1  UNL     1       3.788  -0.531  -1.653  1.00  0.00     0.017 C   
ATOM     4   C3  UNL     1       2.087   0.500  -3.171  1.00  0.00     0.017 C   
ATOM     5   C4  UNL     1       3.674   1.955  -1.930  1.00  0.00     0.017 C   
ENDBRANCH   1   2
BRANCH   1   6
ATOM     6   N1  UNL     1       2.501   0.917   0.683  1.00  0.00     0.250 N   
ATOM     7   H11 UNL     1       2.522  -0.035   1.083  1.00  0.00     0.199 HD  
ATOM     8   H12 UNL     1       3.483   1.179   0.565  1.00  0.00     0.199 HD  
BRANCH   6   9
ATOM     9   C6  UNL     1       1.881   1.834   1.689  1.00  0.00     0.164 C   
BRANCH   9  10
ATOM     10  C7  UNL     1       0.463   1.487   2.053  1.00  0.00    -0.002 A   
ATOM     11  C8  UNL     1      -0.608   2.303   1.613  1.00  0.00     0.012 A   
ATOM     12  C12 UNL     1       0.183   0.319   2.784  1.00  0.00     0.045 A   
ATOM     13  C9  UNL     1      -1.937   1.946   1.867  1.00  0.00     0.037 A   
ATOM     14  C11 UNL     1      -1.139  -0.008   3.010  1.00  0.00     0.109 A   
ATOM     15  C10 UNL     1      -2.169   0.778   2.558  1.00  0.00     0.108 A   
ATOM     16  O1  UNL     1      -1.579  -1.118   3.657  1.00  0.00    -0.316 OA  
ATOM     17  O2  UNL     1      -3.387   0.261   2.861  1.00  0.00    -0.316 OA  
ATOM     18  C13 UNL     1      -3.010  -0.924   3.598  1.00  0.00     0.337 C   
ENDBRANCH   9  10
ENDBRANCH   6   9
ENDBRANCH   1   6
BRANCH   1  19
ATOM     19  C14 UNL     1       0.820  -0.346  -0.563  1.00  0.00     0.128 A   
ATOM     20  C15 UNL     1      -0.518  -0.427  -0.880  1.00  0.00     0.135 A   
ATOM     21  N5  UNL     1       1.201  -1.498   0.065  1.00  0.00    -0.131 NA  
ATOM     22  N2  UNL     1      -0.934  -1.637  -0.356  1.00  0.00    -0.179 N   
ATOM     23  N4  UNL     1       0.141  -2.281   0.163  1.00  0.00    -0.071 NA  
BRANCH  22  24
ATOM     24  C16 UNL     1      -2.238  -2.163  -0.263  1.00  0.00     0.077 A   
ATOM     25  C17 UNL     1      -2.446  -3.384   0.371  1.00  0.00     0.137 A   
ATOM     26  C20 UNL     1      -3.350  -1.476  -0.759  1.00  0.00     0.049 A   
ATOM     27  N3  UNL     1      -3.670  -3.939   0.541  1.00  0.00    -0.261 NA  
ATOM     28  C19 UNL     1      -4.616  -2.036  -0.600  1.00  0.00     0.061 A   
ATOM     29  C18 UNL     1      -4.729  -3.255   0.047  1.00  0.00     0.131 A   
ATOM     30  CL1 UNL     1      -6.004  -1.218  -1.191  1.00  0.00    -0.083 Cl  
ENDBRANCH  22  24
ENDBRANCH   1  19
TORSDOF 6
