REMARK SMILES c1ccc(-c2n[nH]cc2Cn2cc([C@@H]([NH2+]Cc3ccc4c(c3)OCO4)C3CCCC3)nn2)cc1
REMARK SMILES IDX 11 1 12 2 13 3 31 4 32 5 10 7 9 8 5 9 6 10 7 11 8 12 4 14
REMARK SMILES IDX 1 15 2 16 34 17 3 18 33 19 14 20 15 21 16 24 17 25 18 26
REMARK SMILES IDX 22 27 19 28 21 29 20 30 23 31 25 32 24 33 26 34 27 35 30 36
REMARK SMILES IDX 28 37 29 38
REMARK H PARENT 12 6 7 13 15 22 15 23
ROOT
ATOM     1   N3  UNL     1       0.603  -1.218   2.571  1.00  0.00    -0.208 N   
ATOM     2   C9  UNL     1       1.395  -1.091   1.462  1.00  0.00     0.046 A   
ATOM     3   C10 UNL     1       1.336   0.251   1.164  1.00  0.00     0.127 A   
ATOM     4   N5  UNL     1       0.575   0.891   2.108  1.00  0.00    -0.132 NA  
ATOM     5   N6  UNL     1       0.139  -0.014   2.967  1.00  0.00    -0.076 NA  
ATOM     6   H8  UNL     1       1.856  -1.940   0.979  1.00  0.00     0.083 HD  
ENDROOT
BRANCH   1   7
ATOM     7   C8  UNL     1       0.191  -2.426   3.271  1.00  0.00     0.173 C   
BRANCH   7   8
ATOM     8   C7  UNL     1      -0.208  -3.519   2.335  1.00  0.00     0.015 A   
ATOM     9   C5  UNL     1      -1.144  -3.503   1.246  1.00  0.00     0.095 A   
ATOM     10  N1  UNL     1      -1.134  -4.684   0.607  1.00  0.00    -0.184 NA  
ATOM     11  N2  UNL     1      -0.321  -5.465   1.322  1.00  0.00    -0.245 N   
ATOM     12  C6  UNL     1       0.291  -4.808   2.344  1.00  0.00     0.099 A   
ATOM     13  H4  UNL     1      -0.217  -6.436   1.043  1.00  0.00     0.175 HD  
BRANCH   9  14
ATOM     14  C4  UNL     1      -2.006  -2.422   0.754  1.00  0.00     0.002 A   
ATOM     15  C1  UNL     1      -3.707  -0.405  -0.230  1.00  0.00     0.000 A   
ATOM     16  C2  UNL     1      -3.493  -0.537   1.139  1.00  0.00     0.001 A   
ATOM     17  C26 UNL     1      -3.079  -1.279  -1.115  1.00  0.00     0.001 A   
ATOM     18  C3  UNL     1      -2.655  -1.544   1.629  1.00  0.00     0.010 A   
ATOM     19  C25 UNL     1      -2.234  -2.280  -0.625  1.00  0.00     0.010 A   
ENDBRANCH   9  14
ENDBRANCH   7   8
ENDBRANCH   1   7
BRANCH   3  20
ATOM     20  C11 UNL     1       1.858   1.017  -0.005  1.00  0.00     0.117 C   
BRANCH  20  21
ATOM     21  N4  UNL     1       0.840   2.034  -0.446  1.00  0.00     0.249 N   
ATOM     22  H10 UNL     1       1.235   2.737  -1.079  1.00  0.00     0.199 HD  
ATOM     23  H11 UNL     1       0.539   2.545   0.398  1.00  0.00     0.199 HD  
BRANCH  21  24
ATOM     24  C12 UNL     1      -0.398   1.464  -1.052  1.00  0.00     0.164 C   
BRANCH  24  25
ATOM     25  C13 UNL     1      -1.304   2.568  -1.519  1.00  0.00    -0.002 A   
ATOM     26  C14 UNL     1      -1.162   3.116  -2.817  1.00  0.00     0.012 A   
ATOM     27  C18 UNL     1      -2.262   3.102  -0.642  1.00  0.00     0.045 A   
ATOM     28  C15 UNL     1      -1.963   4.183  -3.238  1.00  0.00     0.037 A   
ATOM     29  C17 UNL     1      -3.034   4.153  -1.087  1.00  0.00     0.109 A   
ATOM     30  C16 UNL     1      -2.891   4.677  -2.349  1.00  0.00     0.108 A   
ATOM     31  O1  UNL     1      -3.990   4.793  -0.366  1.00  0.00    -0.316 OA  
ATOM     32  O2  UNL     1      -3.738   5.712  -2.584  1.00  0.00    -0.316 OA  
ATOM     33  C19 UNL     1      -4.454   5.767  -1.326  1.00  0.00     0.337 C   
ENDBRANCH  24  25
ENDBRANCH  21  24
ENDBRANCH  20  21
BRANCH  20  34
ATOM     34  C20 UNL     1       3.209   1.689   0.304  1.00  0.00     0.043 C   
ATOM     35  C21 UNL     1       3.929   2.265  -0.930  1.00  0.00     0.010 C   
ATOM     36  C24 UNL     1       3.182   2.853   1.302  1.00  0.00     0.010 C   
ATOM     37  C22 UNL     1       4.661   3.519  -0.452  1.00  0.00     0.001 C   
ATOM     38  C23 UNL     1       4.521   3.532   1.063  1.00  0.00     0.001 C   
ENDBRANCH  20  34
ENDBRANCH   3  20
TORSDOF 8
