REMARK SMILES Cc1cccc([C@H](CO)n2cc([C@@H]([NH2+]Cc3ccc4c(c3)OCO4)C(C)C)nn2)c1F
REMARK SMILES IDX 10 1 11 2 12 3 28 4 29 5 7 7 6 8 2 9 3 10 30 11 4 12 5 13
REMARK SMILES IDX 1 14 31 15 8 16 9 17 13 19 14 20 15 23 16 24 17 25 21 26
REMARK SMILES IDX 18 27 20 28 19 29 22 30 24 31 23 32 25 33 26 34 27 35
REMARK H PARENT 11 6 9 18 14 21 14 22
ROOT
ATOM     1   N1  UNL     1       2.556   0.172   1.156  1.00  0.00    -0.202 N   
ATOM     2   C9  UNL     1       1.567   0.739   0.391  1.00  0.00     0.046 A   
ATOM     3   C10 UNL     1       0.739   1.345   1.307  1.00  0.00     0.127 A   
ATOM     4   N3  UNL     1       1.266   1.192   2.561  1.00  0.00    -0.132 NA  
ATOM     5   N4  UNL     1       2.373   0.478   2.457  1.00  0.00    -0.075 NA  
ATOM     6   H11 UNL     1       1.523   0.608  -0.682  1.00  0.00     0.083 HD  
ENDROOT
BRANCH   1   7
ATOM     7   C7  UNL     1       3.662  -0.673   0.702  1.00  0.00     0.158 C   
BRANCH   7   8
ATOM     8   C6  UNL     1       3.139  -1.866  -0.089  1.00  0.00     0.013 A   
ATOM     9   C2  UNL     1       1.670  -3.815  -0.289  1.00  0.00    -0.015 A   
ATOM     10  C3  UNL     1       2.199  -4.072  -1.558  1.00  0.00     0.006 A   
ATOM     11  C23 UNL     1       2.160  -2.723   0.435  1.00  0.00     0.131 A   
ATOM     12  C4  UNL     1       3.184  -3.240  -2.093  1.00  0.00     0.001 A   
ATOM     13  C5  UNL     1       3.652  -2.145  -1.366  1.00  0.00     0.009 A   
ATOM     14  C1  UNL     1       0.644  -4.727   0.312  1.00  0.00     0.047 C   
ATOM     15  F1  UNL     1       1.661  -2.480   1.657  1.00  0.00    -0.206 F   
ENDBRANCH   7   8
BRANCH   7  16
ATOM     16  C8  UNL     1       4.614  -1.117   1.829  1.00  0.00     0.186 C   
BRANCH  16  17
ATOM     17  O1  UNL     1       5.833  -1.618   1.274  1.00  0.00    -0.394 OA  
ATOM     18  H10 UNL     1       6.379  -1.936   2.016  1.00  0.00     0.210 HD  
ENDBRANCH  16  17
ENDBRANCH   7  16
ENDBRANCH   1   7
BRANCH   3  19
ATOM     19  C11 UNL     1      -0.588   2.009   1.132  1.00  0.00     0.117 C   
BRANCH  19  20
ATOM     20  N2  UNL     1      -1.495   1.722   2.307  1.00  0.00     0.249 N   
ATOM     21  H13 UNL     1      -2.354   2.273   2.238  1.00  0.00     0.199 HD  
ATOM     22  H14 UNL     1      -0.991   2.034   3.148  1.00  0.00     0.199 HD  
BRANCH  20  23
ATOM     23  C12 UNL     1      -1.855   0.288   2.541  1.00  0.00     0.164 C   
BRANCH  23  24
ATOM     24  C13 UNL     1      -2.552  -0.354   1.374  1.00  0.00    -0.002 A   
ATOM     25  C14 UNL     1      -3.882  -0.003   1.043  1.00  0.00     0.012 A   
ATOM     26  C18 UNL     1      -1.865  -1.292   0.581  1.00  0.00     0.045 A   
ATOM     27  C15 UNL     1      -4.519  -0.572  -0.067  1.00  0.00     0.037 A   
ATOM     28  C17 UNL     1      -2.521  -1.833  -0.504  1.00  0.00     0.109 A   
ATOM     29  C16 UNL     1      -3.810  -1.482  -0.820  1.00  0.00     0.108 A   
ATOM     30  O2  UNL     1      -2.001  -2.741  -1.371  1.00  0.00    -0.316 OA  
ATOM     31  O3  UNL     1      -4.266  -2.126  -1.926  1.00  0.00    -0.316 OA  
ATOM     32  C19 UNL     1      -3.128  -2.952  -2.252  1.00  0.00     0.337 C   
ENDBRANCH  23  24
ENDBRANCH  20  23
ENDBRANCH  19  20
BRANCH  19  33
ATOM     33  C20 UNL     1      -0.459   3.540   0.910  1.00  0.00     0.037 C   
ATOM     34  C21 UNL     1      -1.767   4.147   0.389  1.00  0.00     0.014 C   
ATOM     35  C22 UNL     1       0.011   4.319   2.145  1.00  0.00     0.014 C   
ENDBRANCH  19  33
ENDBRANCH   3  19
TORSDOF 9
