REMARK SMILES Cc1cccc([C@@H](CO)n2cc([C@@H]([NH2+]Cc3ccc4c(c3)OCO4)C(C)C)nn2)c1F
REMARK SMILES IDX 10 1 11 2 12 3 28 4 29 5 7 7 6 8 2 9 3 10 30 11 4 12 5 13
REMARK SMILES IDX 1 14 31 15 8 16 9 17 13 19 14 20 15 23 16 24 17 25 21 26
REMARK SMILES IDX 18 27 20 28 19 29 22 30 24 31 23 32 25 33 26 34 27 35
REMARK H PARENT 11 6 9 18 14 21 14 22
ROOT
ATOM     1   N1  UNL     1       1.637  -1.177  -1.042  1.00  0.00    -0.202 N   
ATOM     2   C9  UNL     1       0.476  -0.928  -1.726  1.00  0.00     0.046 A   
ATOM     3   C10 UNL     1       0.065   0.301  -1.262  1.00  0.00     0.127 A   
ATOM     4   N3  UNL     1       0.950   0.745  -0.316  1.00  0.00    -0.132 NA  
ATOM     5   N4  UNL     1       1.896  -0.168  -0.178  1.00  0.00    -0.075 NA  
ATOM     6   H11 UNL     1       0.071  -1.616  -2.455  1.00  0.00     0.083 HD  
ENDROOT
BRANCH   1   7
ATOM     7   C7  UNL     1       2.542  -2.325  -1.108  1.00  0.00     0.158 C   
BRANCH   7   8
ATOM     8   C6  UNL     1       2.223  -3.306   0.006  1.00  0.00     0.013 A   
ATOM     9   C2  UNL     1       0.735  -4.960   1.029  1.00  0.00    -0.015 A   
ATOM     10  C3  UNL     1       1.655  -5.132   2.068  1.00  0.00     0.006 A   
ATOM     11  C23 UNL     1       1.037  -4.054   0.007  1.00  0.00     0.131 A   
ATOM     12  C4  UNL     1       2.838  -4.392   2.091  1.00  0.00     0.001 A   
ATOM     13  C5  UNL     1       3.120  -3.483   1.070  1.00  0.00     0.009 A   
ATOM     14  C1  UNL     1      -0.525  -5.770   0.978  1.00  0.00     0.047 C   
ATOM     15  F1  UNL     1       0.162  -3.895  -0.997  1.00  0.00    -0.206 F   
ENDBRANCH   7   8
BRANCH   7  16
ATOM     16  C8  UNL     1       2.599  -3.006  -2.490  1.00  0.00     0.186 C   
BRANCH  16  17
ATOM     17  O1  UNL     1       3.102  -2.105  -3.477  1.00  0.00    -0.394 OA  
ATOM     18  H10 UNL     1       3.297  -2.628  -4.276  1.00  0.00     0.210 HD  
ENDBRANCH  16  17
ENDBRANCH   7  16
ENDBRANCH   1   7
BRANCH   3  19
ATOM     19  C11 UNL     1      -1.132   1.132  -1.597  1.00  0.00     0.117 C   
BRANCH  19  20
ATOM     20  N2  UNL     1      -1.447   2.067  -0.460  1.00  0.00     0.249 N   
ATOM     21  H13 UNL     1      -2.015   2.865  -0.757  1.00  0.00     0.199 HD  
ATOM     22  H14 UNL     1      -0.545   2.455  -0.143  1.00  0.00     0.199 HD  
BRANCH  20  23
ATOM     23  C12 UNL     1      -2.084   1.429   0.726  1.00  0.00     0.164 C   
BRANCH  23  24
ATOM     24  C13 UNL     1      -2.240   2.429   1.836  1.00  0.00    -0.002 A   
ATOM     25  C14 UNL     1      -1.176   2.651   2.743  1.00  0.00     0.012 A   
ATOM     26  C18 UNL     1      -3.417   3.189   1.948  1.00  0.00     0.045 A   
ATOM     27  C15 UNL     1      -1.285   3.608   3.758  1.00  0.00     0.037 A   
ATOM     28  C17 UNL     1      -3.491   4.124   2.959  1.00  0.00     0.109 A   
ATOM     29  C16 UNL     1      -2.456   4.328   3.839  1.00  0.00     0.108 A   
ATOM     30  O2  UNL     1      -4.551   4.938   3.206  1.00  0.00    -0.316 OA  
ATOM     31  O3  UNL     1      -2.735   5.294   4.752  1.00  0.00    -0.316 OA  
ATOM     32  C19 UNL     1      -4.075   5.664   4.362  1.00  0.00     0.337 C   
ENDBRANCH  23  24
ENDBRANCH  20  23
ENDBRANCH  19  20
BRANCH  19  33
ATOM     33  C20 UNL     1      -0.943   1.929  -2.914  1.00  0.00     0.037 C   
ATOM     34  C21 UNL     1      -2.267   2.521  -3.413  1.00  0.00     0.014 C   
ATOM     35  C22 UNL     1       0.116   3.035  -2.826  1.00  0.00     0.014 C   
ENDBRANCH  19  33
ENDBRANCH   3  19
TORSDOF 9
