REMARK SMILES CC(C)[C@H]([NH2+]Cc1ccc2c(c1)OCO2)c1cn(-c2ccc(S(N)(=O)=O)cc2)nn1
REMARK SMILES IDX 16 1 17 2 18 3 29 4 30 5 4 6 2 7 1 8 3 9 5 10 6 13 7 14 8 15
REMARK SMILES IDX 12 16 9 17 11 18 10 19 13 20 15 21 14 22 19 23 20 24 28 25
REMARK SMILES IDX 21 26 27 27 22 28 23 29 25 30 26 31 24 32
REMARK H PARENT 5 11 5 12 24 33 24 34
ROOT
ATOM     1   C13 UNL     1       1.402  -0.493   0.024  1.00  0.00     0.127 A   
ATOM     2   C14 UNL     1       2.341   0.482  -0.233  1.00  0.00     0.135 A   
ATOM     3   N2  UNL     1       1.625   1.662  -0.300  1.00  0.00    -0.181 N   
ATOM     4   N4  UNL     1       0.316   1.390  -0.061  1.00  0.00    -0.071 NA  
ATOM     5   N5  UNL     1       0.172   0.090   0.128  1.00  0.00    -0.131 NA  
ENDROOT
BRANCH   1   6
ATOM     6   C4  UNL     1       1.534  -1.974   0.209  1.00  0.00     0.117 C   
BRANCH   6   7
ATOM     7   C2  UNL     1       1.672  -2.722  -1.144  1.00  0.00     0.037 C   
ATOM     8   C1  UNL     1       0.405  -2.684  -2.007  1.00  0.00     0.014 C   
ATOM     9   C3  UNL     1       2.117  -4.176  -0.946  1.00  0.00     0.014 C   
ENDBRANCH   6   7
BRANCH   6  10
ATOM     10  N1  UNL     1       0.364  -2.514   0.987  1.00  0.00     0.249 N   
ATOM     11  H9  UNL     1      -0.481  -2.054   0.616  1.00  0.00     0.199 HD  
ATOM     12  H10 UNL     1       0.228  -3.518   0.838  1.00  0.00     0.199 HD  
BRANCH  10  13
ATOM     13  C5  UNL     1       0.398  -2.248   2.453  1.00  0.00     0.164 C   
BRANCH  13  14
ATOM     14  C6  UNL     1      -0.854  -2.757   3.108  1.00  0.00    -0.002 A   
ATOM     15  C7  UNL     1      -0.906  -4.067   3.639  1.00  0.00     0.012 A   
ATOM     16  C11 UNL     1      -2.002  -1.945   3.151  1.00  0.00     0.045 A   
ATOM     17  C8  UNL     1      -2.080  -4.560   4.219  1.00  0.00     0.037 A   
ATOM     18  C10 UNL     1      -3.140  -2.461   3.734  1.00  0.00     0.109 A   
ATOM     19  C9  UNL     1      -3.180  -3.731   4.252  1.00  0.00     0.108 A   
ATOM     20  O1  UNL     1      -4.325  -1.808   3.867  1.00  0.00    -0.316 OA  
ATOM     21  O2  UNL     1      -4.395  -4.040   4.775  1.00  0.00    -0.316 OA  
ATOM     22  C12 UNL     1      -5.110  -2.804   4.563  1.00  0.00     0.337 C   
ENDBRANCH  13  14
ENDBRANCH  10  13
ENDBRANCH   6  10
ENDBRANCH   1   6
BRANCH   3  23
ATOM     23  C15 UNL     1       2.086   2.979  -0.557  1.00  0.00     0.058 A   
ATOM     24  C16 UNL     1       1.161   4.035  -0.606  1.00  0.00     0.038 A   
ATOM     25  C20 UNL     1       3.448   3.239  -0.770  1.00  0.00     0.038 A   
ATOM     26  C17 UNL     1       1.592   5.337  -0.872  1.00  0.00     0.140 A   
ATOM     27  C19 UNL     1       3.880   4.544  -1.030  1.00  0.00     0.140 A   
ATOM     28  C18 UNL     1       2.951   5.587  -1.074  1.00  0.00     0.338 A   
BRANCH  28  29
ATOM     29  S1  UNL     1       3.482   7.233  -1.452  1.00  0.00    -0.114 S   
ATOM     30  O3  UNL     1       2.495   7.850  -2.304  1.00  0.00    -0.479 OA  
ATOM     31  O4  UNL     1       4.890   7.210  -1.774  1.00  0.00    -0.479 OA  
BRANCH  29  32
ATOM     32  N3  UNL     1       3.365   7.990   0.041  1.00  0.00    -0.094 NA  
ATOM     33  H21 UNL     1       2.682   8.749  -0.010  1.00  0.00     0.263 HD  
ATOM     34  H22 UNL     1       4.289   8.304   0.343  1.00  0.00     0.263 HD  
ENDBRANCH  29  32
ENDBRANCH  28  29
ENDBRANCH   3  23
TORSDOF 8
