REMARK SMILES COc1ccc(Cn2cc([C@@H]([NH2+]Cc3ccc4c(c3)OCO4)C(C)(C)C)nn2)cc1O
REMARK SMILES IDX 8 1 9 2 10 3 27 4 28 5 7 7 6 8 3 9 4 10 30 11 5 12 29 13
REMARK SMILES IDX 2 14 1 15 31 16 11 18 12 19 13 22 14 23 15 24 19 25 16 26
REMARK SMILES IDX 18 27 17 28 20 29 22 30 21 31 23 32 24 33 25 34 26 35
REMARK H PARENT 9 6 31 17 12 20 12 21
ROOT
ATOM     1   N1  UNL     1       0.677   1.731  -2.042  1.00  0.00    -0.208 N   
ATOM     2   C7  UNL     1       0.552   2.241  -0.778  1.00  0.00     0.046 A   
ATOM     3   C8  UNL     1       1.335   1.412  -0.005  1.00  0.00     0.127 A   
ATOM     4   N3  UNL     1       1.895   0.449  -0.806  1.00  0.00    -0.132 NA  
ATOM     5   N4  UNL     1       1.487   0.655  -2.047  1.00  0.00    -0.076 NA  
ATOM     6   H8  UNL     1      -0.074   3.095  -0.557  1.00  0.00     0.083 HD  
ENDROOT
BRANCH   1   7
ATOM     7   C6  UNL     1       0.041   2.192  -3.264  1.00  0.00     0.169 C   
BRANCH   7   8
ATOM     8   C5  UNL     1      -1.340   1.604  -3.398  1.00  0.00    -0.026 A   
ATOM     9   C2  UNL     1      -3.913   0.461  -3.602  1.00  0.00     0.104 A   
ATOM     10  C3  UNL     1      -2.813  -0.188  -4.160  1.00  0.00     0.036 A   
ATOM     11  C23 UNL     1      -3.708   1.676  -2.940  1.00  0.00     0.102 A   
ATOM     12  C4  UNL     1      -1.535   0.378  -4.054  1.00  0.00     0.008 A   
ATOM     13  C22 UNL     1      -2.447   2.252  -2.837  1.00  0.00     0.041 A   
BRANCH   9  14
ATOM     14  O1  UNL     1      -5.210   0.024  -3.622  1.00  0.00    -0.347 OA  
ATOM     15  C1  UNL     1      -5.475  -1.155  -4.375  1.00  0.00     0.203 C   
ENDBRANCH   9  14
BRANCH  11  16
ATOM     16  O4  UNL     1      -4.760   2.336  -2.366  1.00  0.00    -0.358 OA  
ATOM     17  H29 UNL     1      -5.549   1.804  -2.593  1.00  0.00     0.218 HD  
ENDBRANCH  11  16
ENDBRANCH   7   8
ENDBRANCH   1   7
BRANCH   3  18
ATOM     18  C9  UNL     1       1.561   1.358   1.476  1.00  0.00     0.120 C   
BRANCH  18  19
ATOM     19  N2  UNL     1       1.645  -0.093   1.892  1.00  0.00     0.250 N   
ATOM     20  H10 UNL     1       2.258  -0.559   1.206  1.00  0.00     0.199 HD  
ATOM     21  H11 UNL     1       2.091  -0.218   2.804  1.00  0.00     0.199 HD  
BRANCH  19  22
ATOM     22  C10 UNL     1       0.350  -0.831   1.889  1.00  0.00     0.164 C   
BRANCH  22  23
ATOM     23  C11 UNL     1       0.576  -2.284   2.194  1.00  0.00    -0.002 A   
ATOM     24  C12 UNL     1       0.893  -3.186   1.149  1.00  0.00     0.012 A   
ATOM     25  C16 UNL     1       0.532  -2.747   3.520  1.00  0.00     0.045 A   
ATOM     26  C13 UNL     1       1.151  -4.534   1.418  1.00  0.00     0.037 A   
ATOM     27  C15 UNL     1       0.792  -4.082   3.749  1.00  0.00     0.109 A   
ATOM     28  C14 UNL     1       1.092  -4.951   2.729  1.00  0.00     0.108 A   
ATOM     29  O2  UNL     1       0.792  -4.689   4.965  1.00  0.00    -0.316 OA  
ATOM     30  O3  UNL     1       1.316  -6.215   3.173  1.00  0.00    -0.316 OA  
ATOM     31  C17 UNL     1       1.106  -6.050   4.592  1.00  0.00     0.337 C   
ENDBRANCH  22  23
ENDBRANCH  19  22
ENDBRANCH  18  19
BRANCH  18  32
ATOM     32  C18 UNL     1       2.830   2.141   1.963  1.00  0.00     0.010 C   
ATOM     33  C19 UNL     1       2.752   3.617   1.509  1.00  0.00     0.017 C   
ATOM     34  C20 UNL     1       2.895   2.150   3.508  1.00  0.00     0.017 C   
ATOM     35  C21 UNL     1       4.144   1.538   1.427  1.00  0.00     0.017 C   
ENDBRANCH  18  32
ENDBRANCH   3  18
TORSDOF 9
