REMARK SMILES Cc1cccnc1CCn1cc([C@@H]([NH2+]Cc2ccc3c(c2)OCO3)C(C)C)nn1
REMARK SMILES IDX 10 1 11 2 12 3 28 4 29 5 9 7 8 8 7 9 2 10 3 11 4 12 6 13
REMARK SMILES IDX 5 14 1 15 13 16 14 17 15 20 16 21 17 22 21 23 18 24 20 25
REMARK SMILES IDX 19 26 22 27 24 28 23 29 25 30 26 31 27 32
REMARK H PARENT 11 6 14 18 14 19
ROOT
ATOM     1   N2  UNL     1      -0.125   3.436   0.402  1.00  0.00    -0.212 N   
ATOM     2   C9  UNL     1       0.444   2.792   1.463  1.00  0.00     0.045 A   
ATOM     3   C10 UNL     1       0.169   1.465   1.228  1.00  0.00     0.127 A   
ATOM     4   N4  UNL     1      -0.592   1.359   0.088  1.00  0.00    -0.132 NA  
ATOM     5   N5  UNL     1      -0.788   2.571  -0.392  1.00  0.00    -0.076 NA  
ATOM     6   H11 UNL     1       1.012   3.317   2.217  1.00  0.00     0.083 HD  
ENDROOT
BRANCH   1   7
ATOM     7   C8  UNL     1      -0.058   4.843   0.071  1.00  0.00     0.140 C   
BRANCH   7   8
ATOM     8   C7  UNL     1       0.787   5.114  -1.173  1.00  0.00     0.078 C   
BRANCH   8   9
ATOM     9   C6  UNL     1       2.219   4.650  -1.023  1.00  0.00     0.045 A   
ATOM     10  C2  UNL     1       2.909   3.999  -2.052  1.00  0.00    -0.029 A   
ATOM     11  C3  UNL     1       4.249   3.654  -1.826  1.00  0.00     0.007 A   
ATOM     12  C4  UNL     1       4.851   3.958  -0.611  1.00  0.00     0.020 A   
ATOM     13  N1  UNL     1       2.797   4.938   0.175  1.00  0.00    -0.261 NA  
ATOM     14  C5  UNL     1       4.092   4.599   0.351  1.00  0.00     0.111 A   
ATOM     15  C1  UNL     1       2.273   3.668  -3.369  1.00  0.00     0.046 C   
ENDBRANCH   8   9
ENDBRANCH   7   8
ENDBRANCH   1   7
BRANCH   3  16
ATOM     16  C11 UNL     1       0.533   0.226   1.980  1.00  0.00     0.117 C   
BRANCH  16  17
ATOM     17  N3  UNL     1      -0.416  -0.887   1.604  1.00  0.00     0.249 N   
ATOM     18  H13 UNL     1      -0.018  -1.814   1.790  1.00  0.00     0.199 HD  
ATOM     19  H14 UNL     1      -0.543  -0.825   0.580  1.00  0.00     0.199 HD  
BRANCH  17  20
ATOM     20  C12 UNL     1      -1.777  -0.803   2.204  1.00  0.00     0.164 C   
BRANCH  20  21
ATOM     21  C13 UNL     1      -2.680  -1.826   1.569  1.00  0.00    -0.002 A   
ATOM     22  C14 UNL     1      -2.827  -3.114   2.130  1.00  0.00     0.012 A   
ATOM     23  C18 UNL     1      -3.316  -1.523   0.353  1.00  0.00     0.045 A   
ATOM     24  C15 UNL     1      -3.603  -4.090   1.491  1.00  0.00     0.037 A   
ATOM     25  C17 UNL     1      -4.067  -2.503  -0.253  1.00  0.00     0.109 A   
ATOM     26  C16 UNL     1      -4.206  -3.753   0.298  1.00  0.00     0.108 A   
ATOM     27  O1  UNL     1      -4.727  -2.375  -1.434  1.00  0.00    -0.316 OA  
ATOM     28  O2  UNL     1      -4.969  -4.575  -0.470  1.00  0.00    -0.316 OA  
ATOM     29  C19 UNL     1      -5.316  -3.689  -1.560  1.00  0.00     0.337 C   
ENDBRANCH  20  21
ENDBRANCH  17  20
ENDBRANCH  16  17
BRANCH  16  30
ATOM     30  C20 UNL     1       1.983  -0.272   1.723  1.00  0.00     0.037 C   
ATOM     31  C21 UNL     1       3.028   0.679   2.321  1.00  0.00     0.014 C   
ATOM     32  C22 UNL     1       2.304  -0.532   0.245  1.00  0.00     0.014 C   
ENDBRANCH  16  30
ENDBRANCH   3  16
TORSDOF 8
