REMARK SMILES CC(C)[C@H]([NH2+]Cc1ccc2c(c1)OCO2)c1cn(CCc2ccc3c(c2)OCO3)nn1
REMARK SMILES IDX 16 1 17 2 18 3 30 4 31 5 4 7 2 8 1 9 3 10 5 11 6 14 7 15
REMARK SMILES IDX 8 16 12 17 9 18 11 19 10 20 13 21 15 22 14 23 19 24 20 25
REMARK SMILES IDX 21 26 22 27 26 28 23 29 25 30 24 31 27 32 29 33 28 34
REMARK H PARENT 17 6 5 12 5 13
ROOT
ATOM     1   C13 UNL     1      -0.963  -2.355  -0.417  1.00  0.00     0.127 A   
ATOM     2   C14 UNL     1      -0.282  -2.539  -1.601  1.00  0.00     0.045 A   
ATOM     3   N2  UNL     1      -1.149  -2.080  -2.552  1.00  0.00    -0.212 N   
ATOM     4   N3  UNL     1      -2.300  -1.658  -1.996  1.00  0.00    -0.076 NA  
ATOM     5   N4  UNL     1      -2.199  -1.824  -0.686  1.00  0.00    -0.132 NA  
ATOM     6   H18 UNL     1       0.712  -2.893  -1.842  1.00  0.00     0.083 HD  
ENDROOT
BRANCH   1   7
ATOM     7   C4  UNL     1      -0.523  -2.537   1.000  1.00  0.00     0.117 C   
BRANCH   7   8
ATOM     8   C2  UNL     1      -1.226  -3.742   1.684  1.00  0.00     0.037 C   
ATOM     9   C1  UNL     1      -0.916  -5.057   0.952  1.00  0.00     0.014 C   
ATOM     10  C3  UNL     1      -0.829  -3.908   3.157  1.00  0.00     0.014 C   
ENDBRANCH   7   8
BRANCH   7  11
ATOM     11  N1  UNL     1      -0.812  -1.278   1.783  1.00  0.00     0.249 N   
ATOM     12  H9  UNL     1      -0.556  -1.386   2.768  1.00  0.00     0.199 HD  
ATOM     13  H10 UNL     1      -1.828  -1.120   1.748  1.00  0.00     0.199 HD  
BRANCH  11  14
ATOM     14  C5  UNL     1      -0.153  -0.038   1.275  1.00  0.00     0.164 C   
BRANCH  14  15
ATOM     15  C6  UNL     1      -0.348   1.096   2.242  1.00  0.00    -0.002 A   
ATOM     16  C7  UNL     1      -1.576   1.799   2.274  1.00  0.00     0.012 A   
ATOM     17  C11 UNL     1       0.673   1.440   3.146  1.00  0.00     0.045 A   
ATOM     18  C8  UNL     1      -1.788   2.835   3.189  1.00  0.00     0.037 A   
ATOM     19  C10 UNL     1       0.433   2.466   4.035  1.00  0.00     0.109 A   
ATOM     20  C9  UNL     1      -0.763   3.145   4.056  1.00  0.00     0.108 A   
ATOM     21  O1  UNL     1       1.307   2.918   4.974  1.00  0.00    -0.316 OA  
ATOM     22  O2  UNL     1      -0.790   4.111   5.012  1.00  0.00    -0.316 OA  
ATOM     23  C12 UNL     1       0.520   3.958   5.599  1.00  0.00     0.337 C   
ENDBRANCH  14  15
ENDBRANCH  11  14
ENDBRANCH   7  11
ENDBRANCH   1   7
BRANCH   3  24
ATOM     24  C15 UNL     1      -0.903  -1.907  -3.969  1.00  0.00     0.139 C   
BRANCH  24  25
ATOM     25  C16 UNL     1      -0.627  -0.450  -4.351  1.00  0.00     0.057 C   
BRANCH  25  26
ATOM     26  C17 UNL     1       0.554   0.140  -3.611  1.00  0.00    -0.044 A   
ATOM     27  C18 UNL     1       1.875  -0.183  -3.995  1.00  0.00     0.006 A   
ATOM     28  C22 UNL     1       0.338   0.978  -2.502  1.00  0.00     0.040 A   
ATOM     29  C19 UNL     1       2.970   0.313  -3.279  1.00  0.00     0.036 A   
ATOM     30  C21 UNL     1       1.437   1.445  -1.815  1.00  0.00     0.109 A   
ATOM     31  C20 UNL     1       2.717   1.123  -2.194  1.00  0.00     0.108 A   
ATOM     32  O3  UNL     1       1.407   2.227  -0.701  1.00  0.00    -0.316 OA  
ATOM     33  O4  UNL     1       3.650   1.678  -1.376  1.00  0.00    -0.316 OA  
ATOM     34  C23 UNL     1       2.817   2.491  -0.525  1.00  0.00     0.337 C   
ENDBRANCH  25  26
ENDBRANCH  24  25
ENDBRANCH   3  24
TORSDOF 8
