REMARK SMILES CC(C)(C)[C@H]([NH2+]Cc1ccc2c(c1)OCO2)c1cn(C(=O)c2ccc(O)cc2)nn1
REMARK SMILES IDX 17 1 18 2 19 3 29 4 30 5 5 6 2 7 1 8 3 9 4 10 6 11 7 14 8 15
REMARK SMILES IDX 9 16 13 17 10 18 12 19 11 20 14 21 16 22 15 23 20 24 21 25
REMARK SMILES IDX 22 26 23 27 28 28 24 29 27 30 25 31 26 32
REMARK H PARENT 6 12 6 13 26 33
ROOT
ATOM     1   C14 UNL     1       1.325   0.080  -0.594  1.00  0.00     0.128 A   
ATOM     2   C15 UNL     1       2.644  -0.302  -0.555  1.00  0.00     0.139 A   
ATOM     3   N2  UNL     1       2.842  -0.796   0.724  1.00  0.00    -0.143 N   
ATOM     4   N3  UNL     1       1.662  -0.763   1.391  1.00  0.00    -0.068 NA  
ATOM     5   N4  UNL     1       0.742  -0.220   0.608  1.00  0.00    -0.131 NA  
ENDROOT
BRANCH   1   6
ATOM     6   C5  UNL     1       0.492   0.659  -1.702  1.00  0.00     0.120 C   
BRANCH   6   7
ATOM     7   C2  UNL     1       0.455   2.228  -1.723  1.00  0.00     0.010 C   
ATOM     8   C1  UNL     1      -0.229   2.823  -0.476  1.00  0.00     0.017 C   
ATOM     9   C3  UNL     1      -0.299   2.732  -2.977  1.00  0.00     0.017 C   
ATOM     10  C4  UNL     1       1.890   2.797  -1.808  1.00  0.00     0.017 C   
ENDBRANCH   6   7
BRANCH   6  11
ATOM     11  N1  UNL     1      -0.909   0.103  -1.602  1.00  0.00     0.250 N   
ATOM     12  H11 UNL     1      -1.589   0.662  -2.124  1.00  0.00     0.199 HD  
ATOM     13  H12 UNL     1      -1.191   0.168  -0.612  1.00  0.00     0.199 HD  
BRANCH  11  14
ATOM     14  C6  UNL     1      -1.065  -1.321  -2.011  1.00  0.00     0.164 C   
BRANCH  14  15
ATOM     15  C7  UNL     1      -2.483  -1.770  -1.803  1.00  0.00    -0.002 A   
ATOM     16  C8  UNL     1      -2.887  -2.289  -0.549  1.00  0.00     0.012 A   
ATOM     17  C12 UNL     1      -3.431  -1.623  -2.830  1.00  0.00     0.045 A   
ATOM     18  C9  UNL     1      -4.215  -2.667  -0.322  1.00  0.00     0.037 A   
ATOM     19  C11 UNL     1      -4.731  -2.004  -2.572  1.00  0.00     0.109 A   
ATOM     20  C10 UNL     1      -5.113  -2.512  -1.355  1.00  0.00     0.108 A   
ATOM     21  O1  UNL     1      -5.766  -1.924  -3.449  1.00  0.00    -0.316 OA  
ATOM     22  O2  UNL     1      -6.435  -2.819  -1.313  1.00  0.00    -0.316 OA  
ATOM     23  C13 UNL     1      -6.844  -2.465  -2.651  1.00  0.00     0.337 C   
ENDBRANCH  14  15
ENDBRANCH  11  14
ENDBRANCH   6  11
ENDBRANCH   1   6
BRANCH   3  24
ATOM     24  C16 UNL     1       4.017  -1.330   1.277  1.00  0.00     0.271 C   
ATOM     25  O3  UNL     1       4.970  -1.425   0.504  1.00  0.00    -0.269 OA  
BRANCH  24  26
ATOM     26  C17 UNL     1       4.186  -1.802   2.679  1.00  0.00     0.040 A   
ATOM     27  C18 UNL     1       5.127  -2.815   2.924  1.00  0.00     0.016 A   
ATOM     28  C22 UNL     1       3.477  -1.249   3.752  1.00  0.00     0.016 A   
ATOM     29  C19 UNL     1       5.336  -3.291   4.221  1.00  0.00     0.034 A   
ATOM     30  C21 UNL     1       3.687  -1.728   5.048  1.00  0.00     0.034 A   
ATOM     31  C20 UNL     1       4.610  -2.744   5.272  1.00  0.00     0.071 A   
BRANCH  31  32
ATOM     32  O4  UNL     1       4.776  -3.172   6.553  1.00  0.00    -0.361 OA  
ATOM     33  H23 UNL     1       5.467  -3.856   6.577  1.00  0.00     0.218 HD  
ENDBRANCH  31  32
ENDBRANCH  24  26
ENDBRANCH   3  24
TORSDOF 8
