REMARK SMILES CCn1ccc(CCn2cc([C@@H]([NH2+]Cc3ccc4c(c3)OCO4)C3CCCC3)nn2)n1
REMARK SMILES IDX 9 1 10 2 11 3 29 4 30 5 8 7 7 8 6 9 3 10 4 11 31 12 5 13
REMARK SMILES IDX 2 14 1 15 12 16 13 17 14 20 15 21 16 22 20 23 17 24 19 25
REMARK SMILES IDX 18 26 21 27 23 28 22 29 24 30 25 31 28 32 26 33 27 34
REMARK H PARENT 10 6 13 18 13 19
ROOT
ATOM     1   N2  UNL     1       2.629   0.790  -1.227  1.00  0.00    -0.212 N   
ATOM     2   C8  UNL     1       1.832  -0.210  -0.751  1.00  0.00     0.045 A   
ATOM     3   C9  UNL     1       0.638  -0.027  -1.409  1.00  0.00     0.127 A   
ATOM     4   N4  UNL     1       0.755   1.040  -2.264  1.00  0.00    -0.132 NA  
ATOM     5   N5  UNL     1       1.971   1.543  -2.129  1.00  0.00    -0.076 NA  
ATOM     6   H12 UNL     1       2.171  -0.906   0.005  1.00  0.00     0.083 HD  
ENDROOT
BRANCH   1   7
ATOM     7   C7  UNL     1       3.991   1.107  -0.853  1.00  0.00     0.140 C   
BRANCH   7   8
ATOM     8   C6  UNL     1       4.069   2.201   0.207  1.00  0.00     0.079 C   
BRANCH   8   9
ATOM     9   C5  UNL     1       3.489   1.816   1.530  1.00  0.00     0.062 A   
ATOM     10  N1  UNL     1       3.078   0.624   3.234  1.00  0.00    -0.233 N   
ATOM     11  C3  UNL     1       2.505   1.829   3.512  1.00  0.00     0.097 A   
ATOM     12  N6  UNL     1       3.637   0.574   2.009  1.00  0.00    -0.187 NA  
ATOM     13  C4  UNL     1       2.763   2.632   2.427  1.00  0.00     0.042 A   
BRANCH  10  14
ATOM     14  C2  UNL     1       3.149  -0.531   4.108  1.00  0.00     0.128 C   
ATOM     15  C1  UNL     1       2.190  -1.631   3.689  1.00  0.00     0.027 C   
ENDBRANCH  10  14
ENDBRANCH   8   9
ENDBRANCH   7   8
ENDBRANCH   1   7
BRANCH   3  16
ATOM     16  C10 UNL     1      -0.669  -0.733  -1.274  1.00  0.00     0.117 C   
BRANCH  16  17
ATOM     17  N3  UNL     1      -1.810   0.249  -1.458  1.00  0.00     0.249 N   
ATOM     18  H14 UNL     1      -2.705  -0.244  -1.512  1.00  0.00     0.199 HD  
ATOM     19  H15 UNL     1      -1.651   0.702  -2.368  1.00  0.00     0.199 HD  
BRANCH  17  20
ATOM     20  C11 UNL     1      -1.922   1.340  -0.443  1.00  0.00     0.164 C   
BRANCH  20  21
ATOM     21  C12 UNL     1      -2.189   0.839   0.948  1.00  0.00    -0.002 A   
ATOM     22  C13 UNL     1      -1.190   0.951   1.946  1.00  0.00     0.012 A   
ATOM     23  C17 UNL     1      -3.423   0.244   1.267  1.00  0.00     0.045 A   
ATOM     24  C14 UNL     1      -1.417   0.486   3.245  1.00  0.00     0.037 A   
ATOM     25  C16 UNL     1      -3.611  -0.211   2.555  1.00  0.00     0.109 A   
ATOM     26  C15 UNL     1      -2.637  -0.093   3.517  1.00  0.00     0.108 A   
ATOM     27  O1  UNL     1      -4.737  -0.811   3.024  1.00  0.00    -0.316 OA  
ATOM     28  O2  UNL     1      -3.029  -0.602   4.714  1.00  0.00    -0.316 OA  
ATOM     29  C18 UNL     1      -4.373  -1.034   4.406  1.00  0.00     0.337 C   
ENDBRANCH  20  21
ENDBRANCH  17  20
ENDBRANCH  16  17
BRANCH  16  30
ATOM     30  C19 UNL     1      -0.835  -1.857  -2.317  1.00  0.00     0.043 C   
ATOM     31  C20 UNL     1       0.217  -2.966  -2.199  1.00  0.00     0.010 C   
ATOM     32  C23 UNL     1      -2.143  -2.647  -2.181  1.00  0.00     0.010 C   
ATOM     33  C21 UNL     1      -0.369  -4.100  -3.027  1.00  0.00     0.001 C   
ATOM     34  C22 UNL     1      -1.881  -3.999  -2.842  1.00  0.00     0.001 C   
ENDBRANCH  16  30
ENDBRANCH   3  16
TORSDOF 9
