REMARK SMILES Cc1c(F)cccc1[C@@H](CO)n1cc([C@H](CC(C)C)[NH2+]Cc2ccc3c(c2)OCO3)nn1
REMARK SMILES IDX 12 1 13 2 14 3 31 4 32 5 9 7 8 8 2 9 3 10 5 11 7 12 6 13
REMARK SMILES IDX 1 14 4 15 10 16 11 17 15 19 16 20 17 21 18 22 19 23 20 24
REMARK SMILES IDX 21 27 22 28 23 29 27 30 24 31 26 32 25 33 28 34 30 35 29 36
REMARK H PARENT 13 6 11 18 20 25 20 26
ROOT
ATOM     1   N1  UNL     1      -1.719   1.339   0.319  1.00  0.00    -0.202 N   
ATOM     2   C10 UNL     1      -0.650   1.209   1.169  1.00  0.00     0.046 A   
ATOM     3   C11 UNL     1       0.343   0.673   0.381  1.00  0.00     0.127 A   
ATOM     4   N3  UNL     1      -0.143   0.479  -0.888  1.00  0.00    -0.132 NA  
ATOM     5   N4  UNL     1      -1.403   0.879  -0.912  1.00  0.00    -0.075 NA  
ATOM     6   H11 UNL     1      -0.700   1.507   2.207  1.00  0.00     0.083 HD  
ENDROOT
BRANCH   1   7
ATOM     7   C8  UNL     1      -3.041   1.897   0.620  1.00  0.00     0.155 C   
BRANCH   7   8
ATOM     8   C7  UNL     1      -3.120   3.343   0.134  1.00  0.00    -0.017 A   
ATOM     9   C2  UNL     1      -3.084   4.439   1.029  1.00  0.00    -0.010 A   
ATOM     10  C3  UNL     1      -3.138   5.743   0.509  1.00  0.00     0.126 A   
ATOM     11  C4  UNL     1      -3.231   5.985  -0.856  1.00  0.00     0.039 A   
ATOM     12  C6  UNL     1      -3.212   3.609  -1.251  1.00  0.00     0.006 A   
ATOM     13  C5  UNL     1      -3.268   4.915  -1.740  1.00  0.00     0.003 A   
ATOM     14  C1  UNL     1      -2.999   4.266   2.520  1.00  0.00     0.048 C   
ATOM     15  F1  UNL     1      -3.094   6.795   1.339  1.00  0.00    -0.207 F   
ENDBRANCH   7   8
BRANCH   7  16
ATOM     16  C9  UNL     1      -4.187   1.010   0.097  1.00  0.00     0.185 C   
BRANCH  16  17
ATOM     17  O1  UNL     1      -4.257  -0.201   0.856  1.00  0.00    -0.394 OA  
ATOM     18  H10 UNL     1      -4.996  -0.719   0.488  1.00  0.00     0.210 HD  
ENDBRANCH  16  17
ENDBRANCH   7  16
ENDBRANCH   1   7
BRANCH   3  19
ATOM     19  C12 UNL     1       1.752   0.272   0.691  1.00  0.00     0.114 C   
BRANCH  19  20
ATOM     20  C13 UNL     1       2.717   1.464   0.533  1.00  0.00     0.064 C   
BRANCH  20  21
ATOM     21  C14 UNL     1       4.029   1.418   1.349  1.00  0.00    -0.012 C   
ATOM     22  C15 UNL     1       4.941   0.246   0.999  1.00  0.00     0.007 C   
ATOM     23  C16 UNL     1       3.773   1.455   2.857  1.00  0.00     0.007 C   
ENDBRANCH  20  21
ENDBRANCH  19  20
BRANCH  19  24
ATOM     24  N2  UNL     1       2.159  -0.823  -0.261  1.00  0.00     0.249 N   
ATOM     25  H22 UNL     1       3.166  -0.851  -0.432  1.00  0.00     0.199 HD  
ATOM     26  H23 UNL     1       1.732  -0.581  -1.169  1.00  0.00     0.199 HD  
BRANCH  24  27
ATOM     27  C17 UNL     1       1.674  -2.183   0.099  1.00  0.00     0.164 C   
BRANCH  27  28
ATOM     28  C18 UNL     1       1.941  -3.148  -1.021  1.00  0.00    -0.002 A   
ATOM     29  C19 UNL     1       1.008  -3.279  -2.078  1.00  0.00     0.012 A   
ATOM     30  C23 UNL     1       3.140  -3.880  -1.059  1.00  0.00     0.045 A   
ATOM     31  C20 UNL     1       1.257  -4.139  -3.152  1.00  0.00     0.037 A   
ATOM     32  C22 UNL     1       3.353  -4.719  -2.133  1.00  0.00     0.109 A   
ATOM     33  C21 UNL     1       2.438  -4.847  -3.149  1.00  0.00     0.108 A   
ATOM     34  O2  UNL     1       4.454  -5.494  -2.324  1.00  0.00    -0.316 OA  
ATOM     35  O3  UNL     1       2.845  -5.721  -4.106  1.00  0.00    -0.316 OA  
ATOM     36  C24 UNL     1       4.114  -6.150  -3.568  1.00  0.00     0.337 C   
ENDBRANCH  27  28
ENDBRANCH  24  27
ENDBRANCH  19  24
ENDBRANCH   3  19
TORSDOF 10
