REMARK SMILES Cc1c(F)cccc1[C@H](CO)n1cc([C@H](CC(C)C)[NH2+]Cc2ccc3c(c2)OCO3)nn1
REMARK SMILES IDX 12 1 13 2 14 3 31 4 32 5 9 7 8 8 2 9 3 10 5 11 7 12 6 13
REMARK SMILES IDX 1 14 4 15 10 16 11 17 15 19 16 20 17 21 18 22 19 23 20 24
REMARK SMILES IDX 21 27 22 28 23 29 27 30 24 31 26 32 25 33 28 34 30 35 29 36
REMARK H PARENT 13 6 11 18 20 25 20 26
ROOT
ATOM     1   N1  UNL     1      -1.314  -2.360  -0.043  1.00  0.00    -0.202 N   
ATOM     2   C10 UNL     1      -0.917  -1.481   0.930  1.00  0.00     0.046 A   
ATOM     3   C11 UNL     1       0.197  -0.870   0.401  1.00  0.00     0.127 A   
ATOM     4   N3  UNL     1       0.469  -1.420  -0.825  1.00  0.00    -0.132 NA  
ATOM     5   N4  UNL     1      -0.450  -2.337  -1.080  1.00  0.00    -0.075 NA  
ATOM     6   H11 UNL     1      -1.458  -1.372   1.861  1.00  0.00     0.083 HD  
ENDROOT
BRANCH   1   7
ATOM     7   C8  UNL     1      -2.482  -3.241  -0.077  1.00  0.00     0.155 C   
BRANCH   7   8
ATOM     8   C7  UNL     1      -3.754  -2.481   0.320  1.00  0.00    -0.017 A   
ATOM     9   C2  UNL     1      -4.396  -1.601  -0.593  1.00  0.00    -0.010 A   
ATOM     10  C3  UNL     1      -5.546  -0.909  -0.180  1.00  0.00     0.126 A   
ATOM     11  C4  UNL     1      -6.076  -1.061   1.094  1.00  0.00     0.039 A   
ATOM     12  C6  UNL     1      -4.305  -2.615   1.613  1.00  0.00     0.006 A   
ATOM     13  C5  UNL     1      -5.454  -1.916   1.994  1.00  0.00     0.003 A   
ATOM     14  C1  UNL     1      -3.894  -1.379  -1.996  1.00  0.00     0.048 C   
ATOM     15  F1  UNL     1      -6.161  -0.070  -1.026  1.00  0.00    -0.207 F   
ENDBRANCH   7   8
BRANCH   7  16
ATOM     16  C9  UNL     1      -2.183  -4.568   0.655  1.00  0.00     0.185 C   
BRANCH  16  17
ATOM     17  O1  UNL     1      -1.750  -4.382   2.005  1.00  0.00    -0.394 OA  
ATOM     18  H10 UNL     1      -1.635  -5.272   2.388  1.00  0.00     0.210 HD  
ENDBRANCH  16  17
ENDBRANCH   7  16
ENDBRANCH   1   7
BRANCH   3  19
ATOM     19  C12 UNL     1       1.099   0.183   0.957  1.00  0.00     0.114 C   
BRANCH  19  20
ATOM     20  C13 UNL     1       0.656   1.606   0.567  1.00  0.00     0.064 C   
BRANCH  20  21
ATOM     21  C14 UNL     1      -0.712   2.050   1.132  1.00  0.00    -0.012 C   
ATOM     22  C15 UNL     1      -0.737   2.050   2.662  1.00  0.00     0.007 C   
ATOM     23  C16 UNL     1      -1.053   3.451   0.613  1.00  0.00     0.007 C   
ENDBRANCH  20  21
ENDBRANCH  19  20
BRANCH  19  24
ATOM     24  N2  UNL     1       2.487  -0.058   0.414  1.00  0.00     0.249 N   
ATOM     25  H22 UNL     1       2.489   0.166  -0.591  1.00  0.00     0.199 HD  
ATOM     26  H23 UNL     1       2.641  -1.077   0.418  1.00  0.00     0.199 HD  
BRANCH  24  27
ATOM     27  C17 UNL     1       3.621   0.594   1.108  1.00  0.00     0.164 C   
BRANCH  27  28
ATOM     28  C18 UNL     1       4.930   0.138   0.528  1.00  0.00    -0.002 A   
ATOM     29  C19 UNL     1       5.638  -0.937   1.118  1.00  0.00     0.012 A   
ATOM     30  C23 UNL     1       5.434   0.746  -0.634  1.00  0.00     0.045 A   
ATOM     31  C20 UNL     1       6.840  -1.393   0.564  1.00  0.00     0.037 A   
ATOM     32  C22 UNL     1       6.621   0.271  -1.153  1.00  0.00     0.109 A   
ATOM     33  C21 UNL     1       7.303  -0.769  -0.572  1.00  0.00     0.108 A   
ATOM     34  O2  UNL     1       7.245   0.747  -2.262  1.00  0.00    -0.316 OA  
ATOM     35  O3  UNL     1       8.444  -1.079  -1.240  1.00  0.00    -0.316 OA  
ATOM     36  C24 UNL     1       8.415  -0.103  -2.303  1.00  0.00     0.337 C   
ENDBRANCH  27  28
ENDBRANCH  24  27
ENDBRANCH  19  24
ENDBRANCH   3  19
TORSDOF 10
