REMARK SMILES COc1ccc(C)cc1Cn1cc([C@@H]([NH2+]Cc2ccc3c(c2)OCO3)C2CCCC2)nn1
REMARK SMILES IDX 11 1 12 2 13 3 31 4 32 5 10 7 9 8 3 9 4 10 5 11 8 12 6 13
REMARK SMILES IDX 7 14 2 15 1 16 14 17 15 18 16 21 17 22 18 23 22 24 19 25
REMARK SMILES IDX 21 26 20 27 23 28 25 29 24 30 26 31 27 32 30 33 28 34 29 35
REMARK H PARENT 12 6 15 19 15 20
ROOT
ATOM     1   N1  UNL     1      -0.238   0.146  -2.384  1.00  0.00    -0.208 N   
ATOM     2   C10 UNL     1      -0.506  -0.913  -1.560  1.00  0.00     0.046 A   
ATOM     3   C11 UNL     1       0.373  -0.752  -0.513  1.00  0.00     0.127 A   
ATOM     4   N3  UNL     1       1.157   0.349  -0.749  1.00  0.00    -0.132 NA  
ATOM     5   N4  UNL     1       0.797   0.871  -1.909  1.00  0.00    -0.076 NA  
ATOM     6   H12 UNL     1      -1.290  -1.625  -1.778  1.00  0.00     0.083 HD  
ENDROOT
BRANCH   1   7
ATOM     7   C9  UNL     1      -0.886   0.502  -3.634  1.00  0.00     0.172 C   
BRANCH   7   8
ATOM     8   C8  UNL     1      -2.005   1.487  -3.400  1.00  0.00     0.002 A   
ATOM     9   C2  UNL     1      -3.307   1.057  -3.086  1.00  0.00     0.079 A   
ATOM     10  C3  UNL     1      -4.306   2.007  -2.853  1.00  0.00     0.034 A   
ATOM     11  C4  UNL     1      -4.019   3.373  -2.933  1.00  0.00     0.006 A   
ATOM     12  C7  UNL     1      -1.728   2.866  -3.469  1.00  0.00     0.011 A   
ATOM     13  C5  UNL     1      -2.728   3.814  -3.233  1.00  0.00    -0.051 A   
ATOM     14  C6  UNL     1      -2.438   5.283  -3.343  1.00  0.00     0.044 C   
BRANCH   9  15
ATOM     15  O1  UNL     1      -3.490  -0.301  -3.022  1.00  0.00    -0.349 OA  
ATOM     16  C1  UNL     1      -4.830  -0.762  -2.861  1.00  0.00     0.203 C   
ENDBRANCH   9  15
ENDBRANCH   7   8
ENDBRANCH   1   7
BRANCH   3  17
ATOM     17  C12 UNL     1       0.576  -1.546   0.739  1.00  0.00     0.117 C   
BRANCH  17  18
ATOM     18  N2  UNL     1       1.896  -1.188   1.370  1.00  0.00     0.249 N   
ATOM     19  H14 UNL     1       1.991  -0.164   1.281  1.00  0.00     0.199 HD  
ATOM     20  H15 UNL     1       1.923  -1.391   2.373  1.00  0.00     0.199 HD  
BRANCH  18  21
ATOM     21  C13 UNL     1       3.093  -1.789   0.719  1.00  0.00     0.164 C   
BRANCH  21  22
ATOM     22  C14 UNL     1       4.353  -1.295   1.373  1.00  0.00    -0.002 A   
ATOM     23  C15 UNL     1       4.996  -2.069   2.368  1.00  0.00     0.012 A   
ATOM     24  C19 UNL     1       4.875  -0.035   1.029  1.00  0.00     0.045 A   
ATOM     25  C16 UNL     1       6.152  -1.603   3.003  1.00  0.00     0.037 A   
ATOM     26  C18 UNL     1       6.015   0.395   1.676  1.00  0.00     0.109 A   
ATOM     27  C17 UNL     1       6.637  -0.368   2.633  1.00  0.00     0.108 A   
ATOM     28  O2  UNL     1       6.647   1.579   1.464  1.00  0.00    -0.316 OA  
ATOM     29  O3  UNL     1       7.742   0.237   3.140  1.00  0.00    -0.316 OA  
ATOM     30  C20 UNL     1       7.761   1.462   2.377  1.00  0.00     0.337 C   
ENDBRANCH  21  22
ENDBRANCH  18  21
ENDBRANCH  17  18
BRANCH  17  31
ATOM     31  C21 UNL     1      -0.580  -1.336   1.737  1.00  0.00     0.043 C   
ATOM     32  C22 UNL     1      -0.577  -2.293   2.936  1.00  0.00     0.010 C   
ATOM     33  C25 UNL     1      -0.662   0.041   2.399  1.00  0.00     0.010 C   
ATOM     34  C23 UNL     1      -1.407  -1.596   4.017  1.00  0.00     0.001 C   
ATOM     35  C24 UNL     1      -1.678  -0.182   3.511  1.00  0.00     0.001 C   
ENDBRANCH  17  31
ENDBRANCH   3  17
TORSDOF 8
