REMARK SMILES Oc1ccccc1CCn1cc([C@@H]([NH2+]Cc2ccc3c(c2)OCO3)C2CCCC2)nn1
REMARK SMILES IDX 10 1 11 2 12 3 30 4 31 5 9 7 8 8 7 9 2 10 3 11 4 12 6 13
REMARK SMILES IDX 5 14 1 15 13 17 14 18 15 21 16 22 17 23 21 24 18 25 20 26
REMARK SMILES IDX 19 27 22 28 24 29 23 30 25 31 26 32 29 33 27 34 28 35
REMARK H PARENT 11 6 1 16 14 19 14 20
ROOT
ATOM     1   N1  UNL     1      -1.594   0.541  -3.411  1.00  0.00    -0.212 N   
ATOM     2   C9  UNL     1      -1.569  -0.603  -2.659  1.00  0.00     0.045 A   
ATOM     3   C10 UNL     1      -1.899  -0.165  -1.392  1.00  0.00     0.127 A   
ATOM     4   N3  UNL     1      -2.133   1.183  -1.425  1.00  0.00    -0.132 NA  
ATOM     5   N4  UNL     1      -1.946   1.603  -2.666  1.00  0.00    -0.076 NA  
ATOM     6   H10 UNL     1      -1.276  -1.561  -3.064  1.00  0.00     0.083 HD  
ENDROOT
BRANCH   1   7
ATOM     7   C8  UNL     1      -1.160   0.731  -4.780  1.00  0.00     0.139 C   
BRANCH   7   8
ATOM     8   C7  UNL     1       0.045   1.664  -4.897  1.00  0.00     0.059 C   
BRANCH   8   9
ATOM     9   C6  UNL     1       1.275   1.149  -4.179  1.00  0.00    -0.016 A   
ATOM     10  C1  UNL     1       1.616   1.515  -2.868  1.00  0.00     0.074 A   
ATOM     11  C2  UNL     1       2.790   1.048  -2.276  1.00  0.00     0.033 A   
ATOM     12  C3  UNL     1       3.628   0.180  -2.972  1.00  0.00     0.003 A   
ATOM     13  C5  UNL     1       2.130   0.266  -4.864  1.00  0.00     0.006 A   
ATOM     14  C4  UNL     1       3.294  -0.217  -4.264  1.00  0.00     0.000 A   
BRANCH  10  15
ATOM     15  O1  UNL     1       0.847   2.325  -2.078  1.00  0.00    -0.361 OA  
ATOM     16  H1  UNL     1      -0.029   2.468  -2.487  1.00  0.00     0.218 HD  
ENDBRANCH  10  15
ENDBRANCH   8   9
ENDBRANCH   7   8
ENDBRANCH   1   7
BRANCH   3  17
ATOM     17  C11 UNL     1      -1.929  -0.890  -0.085  1.00  0.00     0.117 C   
BRANCH  17  18
ATOM     18  N2  UNL     1      -1.123  -0.136   0.944  1.00  0.00     0.249 N   
ATOM     19  H12 UNL     1      -1.227  -0.555   1.872  1.00  0.00     0.199 HD  
ATOM     20  H13 UNL     1      -1.508   0.819   1.013  1.00  0.00     0.199 HD  
BRANCH  18  21
ATOM     21  C12 UNL     1       0.333  -0.005   0.640  1.00  0.00     0.164 C   
BRANCH  21  22
ATOM     22  C13 UNL     1       1.088   0.436   1.862  1.00  0.00    -0.002 A   
ATOM     23  C14 UNL     1       1.413   1.798   2.053  1.00  0.00     0.012 A   
ATOM     24  C18 UNL     1       1.436  -0.505   2.848  1.00  0.00     0.045 A   
ATOM     25  C15 UNL     1       2.078   2.221   3.210  1.00  0.00     0.037 A   
ATOM     26  C17 UNL     1       2.086  -0.054   3.978  1.00  0.00     0.109 A   
ATOM     27  C16 UNL     1       2.399   1.269   4.154  1.00  0.00     0.108 A   
ATOM     28  O2  UNL     1       2.485  -0.828   5.021  1.00  0.00    -0.316 OA  
ATOM     29  O3  UNL     1       3.038   1.494   5.333  1.00  0.00    -0.316 OA  
ATOM     30  C19 UNL     1       3.100   0.160   5.878  1.00  0.00     0.337 C   
ENDBRANCH  21  22
ENDBRANCH  18  21
ENDBRANCH  17  18
BRANCH  17  31
ATOM     31  C20 UNL     1      -3.366  -1.062   0.448  1.00  0.00     0.043 C   
ATOM     32  C21 UNL     1      -4.227  -1.978  -0.430  1.00  0.00     0.010 C   
ATOM     33  C24 UNL     1      -3.461  -1.757   1.812  1.00  0.00     0.010 C   
ATOM     34  C22 UNL     1      -5.415  -2.323   0.455  1.00  0.00     0.001 C   
ATOM     35  C23 UNL     1      -4.894  -2.272   1.891  1.00  0.00     0.001 C   
ENDBRANCH  17  31
ENDBRANCH   3  17
TORSDOF 9
