REMARK SMILES COc1ccc(Cn2cc([C@H](CC(C)C)[NH2+]Cc3ccc4c(c3)OCO4)nn2)cn1
REMARK SMILES IDX 8 1 9 2 10 3 27 4 28 5 7 7 6 8 3 9 4 10 30 11 5 12 29 13
REMARK SMILES IDX 2 14 1 15 11 16 12 17 13 18 14 19 15 20 16 21 17 24 18 25
REMARK SMILES IDX 19 26 23 27 20 28 22 29 21 30 24 31 26 32 25 33
REMARK H PARENT 9 6 16 22 16 23
ROOT
ATOM     1   N1  UNL     1       1.433   1.567  -0.673  1.00  0.00    -0.208 N   
ATOM     2   C7  UNL     1       1.917   0.337  -0.317  1.00  0.00     0.046 A   
ATOM     3   C8  UNL     1       1.593  -0.467  -1.387  1.00  0.00     0.127 A   
ATOM     4   N3  UNL     1       0.942   0.281  -2.335  1.00  0.00    -0.132 NA  
ATOM     5   N4  UNL     1       0.855   1.523  -1.890  1.00  0.00    -0.076 NA  
ATOM     6   H8  UNL     1       2.410   0.158   0.627  1.00  0.00     0.083 HD  
ENDROOT
BRANCH   1   7
ATOM     7   C6  UNL     1       1.535   2.820   0.055  1.00  0.00     0.171 C   
BRANCH   7   8
ATOM     8   C5  UNL     1       0.425   2.968   1.054  1.00  0.00    -0.010 A   
ATOM     9   C2  UNL     1      -1.534   3.250   2.953  1.00  0.00     0.166 A   
ATOM     10  C3  UNL     1      -1.864   3.470   1.626  1.00  0.00     0.055 A   
ATOM     11  N5  UNL     1      -0.304   2.877   3.365  1.00  0.00    -0.232 NA  
ATOM     12  C4  UNL     1      -0.869   3.326   0.663  1.00  0.00     0.011 A   
ATOM     13  C22 UNL     1       0.645   2.753   2.412  1.00  0.00     0.119 A   
BRANCH   9  14
ATOM     14  O1  UNL     1      -2.553   3.402   3.871  1.00  0.00    -0.333 OA  
ATOM     15  C1  UNL     1      -2.099   3.380   5.220  1.00  0.00     0.205 C   
ENDBRANCH   9  14
ENDBRANCH   7   8
ENDBRANCH   1   7
BRANCH   3  16
ATOM     16  C9  UNL     1       1.786  -1.931  -1.626  1.00  0.00     0.114 C   
BRANCH  16  17
ATOM     17  C10 UNL     1       3.070  -2.193  -2.438  1.00  0.00     0.064 C   
BRANCH  17  18
ATOM     18  C11 UNL     1       3.455  -3.677  -2.620  1.00  0.00    -0.012 C   
ATOM     19  C12 UNL     1       4.685  -3.780  -3.528  1.00  0.00     0.007 C   
ATOM     20  C13 UNL     1       3.741  -4.372  -1.287  1.00  0.00     0.007 C   
ENDBRANCH  17  18
ENDBRANCH  16  17
BRANCH  16  21
ATOM     21  N2  UNL     1       0.597  -2.470  -2.391  1.00  0.00     0.249 N   
ATOM     22  H19 UNL     1       0.892  -3.073  -3.164  1.00  0.00     0.199 HD  
ATOM     23  H20 UNL     1       0.161  -1.649  -2.843  1.00  0.00     0.199 HD  
BRANCH  21  24
ATOM     24  C14 UNL     1      -0.444  -3.166  -1.586  1.00  0.00     0.164 C   
BRANCH  24  25
ATOM     25  C15 UNL     1      -1.109  -2.283  -0.568  1.00  0.00    -0.002 A   
ATOM     26  C16 UNL     1      -2.028  -1.286  -0.978  1.00  0.00     0.012 A   
ATOM     27  C20 UNL     1      -0.797  -2.415   0.796  1.00  0.00     0.045 A   
ATOM     28  C17 UNL     1      -2.628  -0.434  -0.045  1.00  0.00     0.037 A   
ATOM     29  C19 UNL     1      -1.403  -1.555   1.688  1.00  0.00     0.109 A   
ATOM     30  C18 UNL     1      -2.295  -0.595   1.281  1.00  0.00     0.108 A   
ATOM     31  O2  UNL     1      -1.205  -1.546   3.033  1.00  0.00    -0.316 OA  
ATOM     32  O3  UNL     1      -2.783   0.132   2.318  1.00  0.00    -0.316 OA  
ATOM     33  C21 UNL     1      -2.093  -0.474   3.431  1.00  0.00     0.337 C   
ENDBRANCH  24  25
ENDBRANCH  21  24
ENDBRANCH  16  21
ENDBRANCH   3  16
TORSDOF 9
