REMARK SMILES COc1ccc([C@@H](O)Cn2cc([C@@H]([NH2+]Cc3ccc4c(c3)OCO4)C(C)(C)C)nn2)cc1
REMARK SMILES IDX 10 1 11 2 12 3 29 4 30 5 9 7 7 8 6 9 3 10 4 11 32 12 5 13
REMARK SMILES IDX 31 14 2 15 1 16 8 17 13 19 14 20 15 23 16 24 17 25 21 26
REMARK SMILES IDX 18 27 20 28 19 29 22 30 24 31 23 32 25 33 26 34 27 35 28 36
REMARK H PARENT 11 6 8 18 14 21 14 22
ROOT
ATOM     1   N1  UNL     1      -3.066   1.525   0.291  1.00  0.00    -0.209 N   
ATOM     2   C8  UNL     1      -2.885   0.419  -0.493  1.00  0.00     0.046 A   
ATOM     3   C9  UNL     1      -2.294  -0.492   0.353  1.00  0.00     0.127 A   
ATOM     4   N3  UNL     1      -2.160   0.070   1.597  1.00  0.00    -0.132 NA  
ATOM     5   N4  UNL     1      -2.648   1.298   1.549  1.00  0.00    -0.076 NA  
ATOM     6   H10 UNL     1      -3.132   0.407  -1.545  1.00  0.00     0.083 HD  
ENDROOT
BRANCH   1   7
ATOM     7   C7  UNL     1      -3.486   2.844  -0.125  1.00  0.00     0.170 C   
BRANCH   7   8
ATOM     8   C6  UNL     1      -2.367   3.891  -0.035  1.00  0.00     0.164 C   
BRANCH   8   9
ATOM     9   C5  UNL     1      -1.083   3.461  -0.721  1.00  0.00    -0.018 A   
ATOM     10  C2  UNL     1       1.271   2.532  -1.956  1.00  0.00     0.075 A   
ATOM     11  C3  UNL     1       0.154   2.847  -2.727  1.00  0.00     0.034 A   
ATOM     12  C24 UNL     1       1.216   2.693  -0.571  1.00  0.00     0.034 A   
ATOM     13  C4  UNL     1      -1.015   3.313  -2.114  1.00  0.00     0.009 A   
ATOM     14  C23 UNL     1       0.051   3.155   0.044  1.00  0.00     0.009 A   
BRANCH  10  15
ATOM     15  O1  UNL     1       2.450   2.029  -2.430  1.00  0.00    -0.349 OA  
ATOM     16  C1  UNL     1       2.715   2.247  -3.813  1.00  0.00     0.203 C   
ENDBRANCH  10  15
ENDBRANCH   8   9
BRANCH   8  17
ATOM     17  O2  UNL     1      -2.828   5.104  -0.633  1.00  0.00    -0.387 OA  
ATOM     18  H7  UNL     1      -2.058   5.696  -0.721  1.00  0.00     0.211 HD  
ENDBRANCH   8  17
ENDBRANCH   7   8
ENDBRANCH   1   7
BRANCH   3  19
ATOM     19  C10 UNL     1      -1.697  -1.841   0.083  1.00  0.00     0.120 C   
BRANCH  19  20
ATOM     20  N2  UNL     1      -0.355  -1.909   0.773  1.00  0.00     0.250 N   
ATOM     21  H12 UNL     1      -0.500  -1.540   1.725  1.00  0.00     0.199 HD  
ATOM     22  H13 UNL     1      -0.013  -2.866   0.886  1.00  0.00     0.199 HD  
BRANCH  20  23
ATOM     23  C11 UNL     1       0.719  -1.087   0.142  1.00  0.00     0.164 C   
BRANCH  23  24
ATOM     24  C12 UNL     1       1.942  -1.059   1.014  1.00  0.00    -0.002 A   
ATOM     25  C13 UNL     1       3.023  -1.937   0.767  1.00  0.00     0.012 A   
ATOM     26  C17 UNL     1       1.997  -0.182   2.112  1.00  0.00     0.045 A   
ATOM     27  C14 UNL     1       4.151  -1.936   1.596  1.00  0.00     0.037 A   
ATOM     28  C16 UNL     1       3.122  -0.206   2.908  1.00  0.00     0.109 A   
ATOM     29  C15 UNL     1       4.169  -1.058   2.657  1.00  0.00     0.108 A   
ATOM     30  O3  UNL     1       3.336   0.573   3.999  1.00  0.00    -0.316 OA  
ATOM     31  O4  UNL     1       5.176  -0.921   3.559  1.00  0.00    -0.316 OA  
ATOM     32  C18 UNL     1       4.651   0.128   4.401  1.00  0.00     0.337 C   
ENDBRANCH  23  24
ENDBRANCH  20  23
ENDBRANCH  19  20
BRANCH  19  33
ATOM     33  C19 UNL     1      -2.602  -3.046   0.509  1.00  0.00     0.010 C   
ATOM     34  C20 UNL     1      -3.986  -2.936  -0.171  1.00  0.00     0.017 C   
ATOM     35  C21 UNL     1      -2.816  -3.128   2.033  1.00  0.00     0.017 C   
ATOM     36  C22 UNL     1      -1.973  -4.378   0.037  1.00  0.00     0.017 C   
ENDBRANCH  19  33
ENDBRANCH   3  19
TORSDOF 10
