REMARK SMILES COc1ccc([C@H](O)Cn2cc([C@@H]([NH2+]Cc3ccc4c(c3)OCO4)C(C)(C)C)nn2)cc1
REMARK SMILES IDX 10 1 11 2 12 3 29 4 30 5 9 7 7 8 6 9 3 10 4 11 32 12 5 13
REMARK SMILES IDX 31 14 2 15 1 16 8 17 13 19 14 20 15 23 16 24 17 25 21 26
REMARK SMILES IDX 18 27 20 28 19 29 22 30 24 31 23 32 25 33 26 34 27 35 28 36
REMARK H PARENT 11 6 8 18 14 21 14 22
ROOT
ATOM     1   N1  UNL     1      -1.189   1.703   2.028  1.00  0.00    -0.209 N   
ATOM     2   C8  UNL     1      -0.482   1.254   0.949  1.00  0.00     0.046 A   
ATOM     3   C9  UNL     1       0.406   0.348   1.487  1.00  0.00     0.127 A   
ATOM     4   N3  UNL     1       0.250   0.326   2.850  1.00  0.00    -0.132 NA  
ATOM     5   N4  UNL     1      -0.719   1.168   3.169  1.00  0.00    -0.076 NA  
ATOM     6   H10 UNL     1      -0.692   1.580  -0.060  1.00  0.00     0.083 HD  
ENDROOT
BRANCH   1   7
ATOM     7   C7  UNL     1      -2.309   2.615   2.045  1.00  0.00     0.170 C   
BRANCH   7   8
ATOM     8   C6  UNL     1      -3.646   1.914   2.304  1.00  0.00     0.164 C   
BRANCH   8   9
ATOM     9   C5  UNL     1      -3.980   0.874   1.253  1.00  0.00    -0.018 A   
ATOM     10  C2  UNL     1      -4.511  -1.077  -0.711  1.00  0.00     0.075 A   
ATOM     11  C3  UNL     1      -4.160  -1.453   0.586  1.00  0.00     0.034 A   
ATOM     12  C24 UNL     1      -4.601   0.278  -1.027  1.00  0.00     0.034 A   
ATOM     13  C4  UNL     1      -3.896  -0.490   1.563  1.00  0.00     0.009 A   
ATOM     14  C23 UNL     1      -4.338   1.246  -0.051  1.00  0.00     0.009 A   
BRANCH  10  15
ATOM     15  O1  UNL     1      -4.725  -2.118  -1.571  1.00  0.00    -0.349 OA  
ATOM     16  C1  UNL     1      -5.279  -1.798  -2.843  1.00  0.00     0.203 C   
ENDBRANCH  10  15
ENDBRANCH   8   9
BRANCH   8  17
ATOM     17  O2  UNL     1      -4.681   2.899   2.338  1.00  0.00    -0.387 OA  
ATOM     18  H7  UNL     1      -5.532   2.429   2.264  1.00  0.00     0.211 HD  
ENDBRANCH   8  17
ENDBRANCH   7   8
ENDBRANCH   1   7
BRANCH   3  19
ATOM     19  C10 UNL     1       1.470  -0.490   0.848  1.00  0.00     0.120 C   
BRANCH  19  20
ATOM     20  N2  UNL     1       2.665  -0.565   1.781  1.00  0.00     0.250 N   
ATOM     21  H12 UNL     1       2.290  -0.834   2.702  1.00  0.00     0.199 HD  
ATOM     22  H13 UNL     1       3.316  -1.297   1.491  1.00  0.00     0.199 HD  
BRANCH  20  23
ATOM     23  C11 UNL     1       3.432   0.702   1.979  1.00  0.00     0.164 C   
BRANCH  23  24
ATOM     24  C12 UNL     1       4.133   1.162   0.731  1.00  0.00    -0.002 A   
ATOM     25  C13 UNL     1       5.280   0.479   0.257  1.00  0.00     0.012 A   
ATOM     26  C17 UNL     1       3.627   2.254   0.004  1.00  0.00     0.045 A   
ATOM     27  C14 UNL     1       5.911   0.875  -0.928  1.00  0.00     0.037 A   
ATOM     28  C16 UNL     1       4.272   2.615  -1.161  1.00  0.00     0.109 A   
ATOM     29  C15 UNL     1       5.381   1.945  -1.614  1.00  0.00     0.108 A   
ATOM     30  O3  UNL     1       3.907   3.634  -1.983  1.00  0.00    -0.316 OA  
ATOM     31  O4  UNL     1       5.858   2.461  -2.777  1.00  0.00    -0.316 OA  
ATOM     32  C18 UNL     1       4.931   3.545  -3.001  1.00  0.00     0.337 C   
ENDBRANCH  23  24
ENDBRANCH  20  23
ENDBRANCH  19  20
BRANCH  19  33
ATOM     33  C19 UNL     1       0.998  -1.935   0.452  1.00  0.00     0.010 C   
ATOM     34  C20 UNL     1       2.116  -2.674  -0.320  1.00  0.00     0.017 C   
ATOM     35  C21 UNL     1       0.605  -2.791   1.673  1.00  0.00     0.017 C   
ATOM     36  C22 UNL     1      -0.222  -1.854  -0.496  1.00  0.00     0.017 C   
ENDBRANCH  19  33
ENDBRANCH   3  19
TORSDOF 10
