REMARK SMILES CC(C)C[C@H]([NH2+]Cc1ccc2c(c1)OCO2)c1cn(Cc2ccc3c(c2)C[C@@H](C)O3)nn1
REMARK SMILES IDX 17 1 18 2 19 3 31 4 32 5 5 7 4 8 2 9 1 10 3 11 6 12 7 15
REMARK SMILES IDX 8 16 9 17 13 18 10 19 12 20 11 21 14 22 16 23 15 24 20 25
REMARK SMILES IDX 21 26 22 27 26 28 23 29 25 30 24 31 27 32 30 33 28 34 29 35
REMARK H PARENT 18 6 6 13 6 14
ROOT
ATOM     1   C14 UNL     1       1.394  -1.426   2.667  1.00  0.00     0.127 A   
ATOM     2   C15 UNL     1       2.308  -0.608   2.043  1.00  0.00     0.046 A   
ATOM     3   N2  UNL     1       3.187  -1.482   1.462  1.00  0.00    -0.208 N   
ATOM     4   N3  UNL     1       2.866  -2.756   1.762  1.00  0.00    -0.076 NA  
ATOM     5   N4  UNL     1       1.772  -2.734   2.506  1.00  0.00    -0.132 NA  
ATOM     6   H20 UNL     1       2.375   0.463   1.898  1.00  0.00     0.083 HD  
ENDROOT
BRANCH   1   7
ATOM     7   C5  UNL     1       0.097  -1.107   3.333  1.00  0.00     0.114 C   
BRANCH   7   8
ATOM     8   C4  UNL     1       0.230  -1.193   4.868  1.00  0.00     0.064 C   
BRANCH   8   9
ATOM     9   C2  UNL     1      -1.036  -0.862   5.687  1.00  0.00    -0.012 C   
ATOM     10  C1  UNL     1      -1.602   0.521   5.365  1.00  0.00     0.007 C   
ATOM     11  C3  UNL     1      -0.720  -0.954   7.184  1.00  0.00     0.007 C   
ENDBRANCH   8   9
ENDBRANCH   7   8
BRANCH   7  12
ATOM     12  N1  UNL     1      -0.984  -2.061   2.875  1.00  0.00     0.249 N   
ATOM     13  H11 UNL     1      -1.854  -1.878   3.380  1.00  0.00     0.199 HD  
ATOM     14  H12 UNL     1      -0.667  -3.005   3.131  1.00  0.00     0.199 HD  
BRANCH  12  15
ATOM     15  C6  UNL     1      -1.280  -2.079   1.407  1.00  0.00     0.164 C   
BRANCH  15  16
ATOM     16  C7  UNL     1      -1.724  -0.747   0.870  1.00  0.00    -0.002 A   
ATOM     17  C8  UNL     1      -2.992  -0.220   1.216  1.00  0.00     0.012 A   
ATOM     18  C12 UNL     1      -0.868  -0.002   0.039  1.00  0.00     0.045 A   
ATOM     19  C9  UNL     1      -3.398   1.034   0.749  1.00  0.00     0.037 A   
ATOM     20  C11 UNL     1      -1.298   1.232  -0.400  1.00  0.00     0.109 A   
ATOM     21  C10 UNL     1      -2.527   1.735  -0.055  1.00  0.00     0.108 A   
ATOM     22  O1  UNL     1      -0.594   2.081  -1.194  1.00  0.00    -0.316 OA  
ATOM     23  O2  UNL     1      -2.756   2.961  -0.594  1.00  0.00    -0.316 OA  
ATOM     24  C13 UNL     1      -1.544   3.159  -1.353  1.00  0.00     0.337 C   
ENDBRANCH  15  16
ENDBRANCH  12  15
ENDBRANCH   7  12
ENDBRANCH   1   7
BRANCH   3  25
ATOM     25  C16 UNL     1       4.247  -1.183   0.512  1.00  0.00     0.169 C   
BRANCH  25  26
ATOM     26  C17 UNL     1       3.653  -0.716  -0.797  1.00  0.00    -0.028 A   
ATOM     27  C18 UNL     1       2.975  -1.635  -1.632  1.00  0.00     0.008 A   
ATOM     28  C22 UNL     1       3.737   0.634  -1.177  1.00  0.00     0.012 A   
ATOM     29  C19 UNL     1       2.369  -1.217  -2.819  1.00  0.00     0.034 A   
ATOM     30  C21 UNL     1       3.127   1.028  -2.356  1.00  0.00    -0.015 A   
ATOM     31  C20 UNL     1       2.452   0.118  -3.150  1.00  0.00     0.079 A   
ATOM     32  C23 UNL     1       3.114   2.354  -3.015  1.00  0.00     0.070 C   
ATOM     33  O3  UNL     1       1.908   0.664  -4.281  1.00  0.00    -0.343 OA  
ATOM     34  C24 UNL     1       2.045   2.095  -4.088  1.00  0.00     0.126 C   
ATOM     35  C25 UNL     1       2.387   2.740  -5.422  1.00  0.00     0.039 C   
ENDBRANCH  25  26
ENDBRANCH   3  25
TORSDOF 8
