REMARK SMILES CC(C)C[C@H]([NH2+]Cc1ccc2c(c1)OCO2)c1cn(Cc2ccc3c(c2)C[C@H](C)O3)nn1
REMARK SMILES IDX 17 1 18 2 19 3 31 4 32 5 5 7 4 8 2 9 1 10 3 11 6 12 7 15
REMARK SMILES IDX 8 16 9 17 13 18 10 19 12 20 11 21 14 22 16 23 15 24 20 25
REMARK SMILES IDX 21 26 22 27 26 28 23 29 25 30 24 31 27 32 30 33 28 34 29 35
REMARK H PARENT 18 6 6 13 6 14
ROOT
ATOM     1   C14 UNL     1       0.330  -1.681  -2.044  1.00  0.00     0.127 A   
ATOM     2   C15 UNL     1      -0.648  -1.810  -1.084  1.00  0.00     0.046 A   
ATOM     3   N2  UNL     1      -0.178  -2.802  -0.266  1.00  0.00    -0.208 N   
ATOM     4   N3  UNL     1       1.005  -3.270  -0.710  1.00  0.00    -0.076 NA  
ATOM     5   N4  UNL     1       1.328  -2.589  -1.796  1.00  0.00    -0.132 NA  
ATOM     6   H20 UNL     1      -1.581  -1.298  -0.895  1.00  0.00     0.083 HD  
ENDROOT
BRANCH   1   7
ATOM     7   C5  UNL     1       0.471  -0.740  -3.195  1.00  0.00     0.114 C   
BRANCH   7   8
ATOM     8   C4  UNL     1      -0.176  -1.317  -4.468  1.00  0.00     0.064 C   
BRANCH   8   9
ATOM     9   C2  UNL     1      -0.204  -0.377  -5.692  1.00  0.00    -0.012 C   
ATOM     10  C1  UNL     1      -0.986   0.910  -5.423  1.00  0.00     0.007 C   
ATOM     11  C3  UNL     1      -0.820  -1.111  -6.888  1.00  0.00     0.007 C   
ENDBRANCH   8   9
ENDBRANCH   7   8
BRANCH   7  12
ATOM     12  N1  UNL     1       1.940  -0.487  -3.451  1.00  0.00     0.249 N   
ATOM     13  H11 UNL     1       2.175  -0.622  -4.438  1.00  0.00     0.199 HD  
ATOM     14  H12 UNL     1       2.442  -1.243  -2.954  1.00  0.00     0.199 HD  
BRANCH  12  15
ATOM     15  C6  UNL     1       2.478   0.816  -2.976  1.00  0.00     0.164 C   
BRANCH  15  16
ATOM     16  C7  UNL     1       2.402   0.999  -1.487  1.00  0.00    -0.002 A   
ATOM     17  C8  UNL     1       3.261   0.269  -0.630  1.00  0.00     0.012 A   
ATOM     18  C12 UNL     1       1.462   1.884  -0.929  1.00  0.00     0.045 A   
ATOM     19  C9  UNL     1       3.193   0.423   0.759  1.00  0.00     0.037 A   
ATOM     20  C11 UNL     1       1.420   2.009   0.444  1.00  0.00     0.109 A   
ATOM     21  C10 UNL     1       2.264   1.304   1.265  1.00  0.00     0.108 A   
ATOM     22  O1  UNL     1       0.577   2.819   1.137  1.00  0.00    -0.316 OA  
ATOM     23  O2  UNL     1       2.068   1.588   2.578  1.00  0.00    -0.316 OA  
ATOM     24  C13 UNL     1       1.008   2.564   2.494  1.00  0.00     0.337 C   
ENDBRANCH  15  16
ENDBRANCH  12  15
ENDBRANCH   7  12
ENDBRANCH   1   7
BRANCH   3  25
ATOM     25  C16 UNL     1      -0.805  -3.367   0.918  1.00  0.00     0.169 C   
BRANCH  25  26
ATOM     26  C17 UNL     1      -0.931  -2.339   2.015  1.00  0.00    -0.028 A   
ATOM     27  C18 UNL     1       0.216  -1.918   2.724  1.00  0.00     0.008 A   
ATOM     28  C22 UNL     1      -2.184  -1.786   2.333  1.00  0.00     0.012 A   
ATOM     29  C19 UNL     1       0.122  -0.959   3.733  1.00  0.00     0.034 A   
ATOM     30  C21 UNL     1      -2.254  -0.831   3.333  1.00  0.00    -0.015 A   
ATOM     31  C20 UNL     1      -1.121  -0.430   4.013  1.00  0.00     0.079 A   
ATOM     32  C23 UNL     1      -3.437  -0.120   3.868  1.00  0.00     0.070 C   
ATOM     33  O3  UNL     1      -1.343   0.525   4.964  1.00  0.00    -0.343 OA  
ATOM     34  C24 UNL     1      -2.762   0.822   4.883  1.00  0.00     0.126 C   
ATOM     35  C25 UNL     1      -2.919   2.291   4.506  1.00  0.00     0.039 C   
ENDBRANCH  25  26
ENDBRANCH   3  25
TORSDOF 8
