REMARK SMILES CC(C)[C@H]([NH2+]Cc1ccc2c(c1)OCO2)c1cn(C[C@@H](O)c2ccc(Cl)cc2)nn1
REMARK SMILES IDX 16 1 17 2 18 3 29 4 30 5 4 7 2 8 1 9 3 10 5 11 6 14 7 15
REMARK SMILES IDX 8 16 12 17 9 18 11 19 10 20 13 21 15 22 14 23 19 24 20 25
REMARK SMILES IDX 21 26 22 28 23 29 28 30 24 31 27 32 25 33 26 34
REMARK H PARENT 17 6 5 12 5 13 21 27
ROOT
ATOM     1   C13 UNL     1      -1.066   0.902  -0.846  1.00  0.00     0.127 A   
ATOM     2   C14 UNL     1      -0.972   1.821   0.175  1.00  0.00     0.045 A   
ATOM     3   N2  UNL     1      -1.228   1.091   1.301  1.00  0.00    -0.209 N   
ATOM     4   N3  UNL     1      -1.448  -0.202   1.000  1.00  0.00    -0.076 NA  
ATOM     5   N4  UNL     1      -1.356  -0.330  -0.314  1.00  0.00    -0.132 NA  
ATOM     6   H18 UNL     1      -0.746   2.878   0.211  1.00  0.00     0.083 HD  
ENDROOT
BRANCH   1   7
ATOM     7   C4  UNL     1      -0.848   1.034  -2.318  1.00  0.00     0.117 C   
BRANCH   7   8
ATOM     8   C2  UNL     1      -2.119   1.420  -3.118  1.00  0.00     0.037 C   
ATOM     9   C1  UNL     1      -3.275   0.421  -2.983  1.00  0.00     0.014 C   
ATOM     10  C3  UNL     1      -2.607   2.828  -2.761  1.00  0.00     0.014 C   
ENDBRANCH   7   8
BRANCH   7  11
ATOM     11  N1  UNL     1      -0.313  -0.264  -2.874  1.00  0.00     0.249 N   
ATOM     12  H9  UNL     1      -0.447  -0.325  -3.888  1.00  0.00     0.199 HD  
ATOM     13  H10 UNL     1      -0.879  -1.020  -2.459  1.00  0.00     0.199 HD  
BRANCH  11  14
ATOM     14  C5  UNL     1       1.110  -0.556  -2.548  1.00  0.00     0.164 C   
BRANCH  14  15
ATOM     15  C6  UNL     1       1.497  -1.912  -3.065  1.00  0.00    -0.002 A   
ATOM     16  C7  UNL     1       1.252  -3.065  -2.280  1.00  0.00     0.012 A   
ATOM     17  C11 UNL     1       2.050  -2.052  -4.349  1.00  0.00     0.045 A   
ATOM     18  C8  UNL     1       1.564  -4.341  -2.761  1.00  0.00     0.037 A   
ATOM     19  C10 UNL     1       2.346  -3.325  -4.792  1.00  0.00     0.109 A   
ATOM     20  C9  UNL     1       2.111  -4.437  -4.021  1.00  0.00     0.108 A   
ATOM     21  O1  UNL     1       2.882  -3.635  -6.001  1.00  0.00    -0.316 OA  
ATOM     22  O2  UNL     1       2.472  -5.587  -4.647  1.00  0.00    -0.316 OA  
ATOM     23  C12 UNL     1       2.982  -5.074  -5.896  1.00  0.00     0.337 C   
ENDBRANCH  14  15
ENDBRANCH  11  14
ENDBRANCH   7  11
ENDBRANCH   1   7
BRANCH   3  24
ATOM     24  C15 UNL     1      -1.278   1.548   2.676  1.00  0.00     0.170 C   
BRANCH  24  25
ATOM     25  C16 UNL     1       0.048   1.296   3.396  1.00  0.00     0.164 C   
BRANCH  25  26
ATOM     26  O3  UNL     1       1.058   2.164   2.866  1.00  0.00    -0.387 OA  
ATOM     27  H22 UNL     1       1.764   2.224   3.537  1.00  0.00     0.211 HD  
ENDBRANCH  25  26
BRANCH  25  28
ATOM     28  C17 UNL     1      -0.077   1.527   4.888  1.00  0.00    -0.018 A   
ATOM     29  C18 UNL     1      -0.215   2.823   5.413  1.00  0.00     0.008 A   
ATOM     30  C22 UNL     1      -0.076   0.436   5.771  1.00  0.00     0.008 A   
ATOM     31  C19 UNL     1      -0.344   3.023   6.789  1.00  0.00     0.021 A   
ATOM     32  C21 UNL     1      -0.204   0.638   7.148  1.00  0.00     0.021 A   
ATOM     33  C20 UNL     1      -0.337   1.929   7.652  1.00  0.00     0.041 A   
ATOM     34  CL1 UNL     1      -0.496   2.175   9.346  1.00  0.00    -0.084 Cl  
ENDBRANCH  25  28
ENDBRANCH  24  25
ENDBRANCH   3  24
TORSDOF 9
