REMARK SMILES CC(C)[C@H]([NH2+]Cc1ccc2c(c1)OCO2)c1cn(C[C@H](O)c2ccc(Cl)cc2)nn1
REMARK SMILES IDX 16 1 17 2 18 3 29 4 30 5 4 7 2 8 1 9 3 10 5 11 6 14 7 15
REMARK SMILES IDX 8 16 12 17 9 18 11 19 10 20 13 21 15 22 14 23 19 24 20 25
REMARK SMILES IDX 21 26 22 28 23 29 28 30 24 31 27 32 25 33 26 34
REMARK H PARENT 17 6 5 12 5 13 21 27
ROOT
ATOM     1   C13 UNL     1      -0.303   1.778  -1.874  1.00  0.00     0.127 A   
ATOM     2   C14 UNL     1       0.118   2.068  -0.595  1.00  0.00     0.045 A   
ATOM     3   N2  UNL     1      -0.878   2.854  -0.090  1.00  0.00    -0.209 N   
ATOM     4   N3  UNL     1      -1.857   3.032  -0.995  1.00  0.00    -0.076 NA  
ATOM     5   N4  UNL     1      -1.516   2.380  -2.095  1.00  0.00    -0.132 NA  
ATOM     6   H18 UNL     1       0.989   1.788  -0.018  1.00  0.00     0.083 HD  
ENDROOT
BRANCH   1   7
ATOM     7   C4  UNL     1       0.296   0.905  -2.931  1.00  0.00     0.117 C   
BRANCH   7   8
ATOM     8   C2  UNL     1       0.957   1.733  -4.070  1.00  0.00     0.037 C   
ATOM     9   C1  UNL     1       2.091   2.618  -3.530  1.00  0.00     0.014 C   
ATOM     10  C3  UNL     1       1.528   0.853  -5.191  1.00  0.00     0.014 C   
ENDBRANCH   7   8
BRANCH   7  11
ATOM     11  N1  UNL     1      -0.781   0.017  -3.526  1.00  0.00     0.249 N   
ATOM     12  H9  UNL     1      -0.399  -0.541  -4.293  1.00  0.00     0.199 HD  
ATOM     13  H10 UNL     1      -1.491   0.648  -3.922  1.00  0.00     0.199 HD  
BRANCH  11  14
ATOM     14  C5  UNL     1      -1.484  -0.911  -2.588  1.00  0.00     0.164 C   
BRANCH  14  15
ATOM     15  C6  UNL     1      -0.574  -1.944  -1.986  1.00  0.00    -0.002 A   
ATOM     16  C7  UNL     1      -0.160  -3.067  -2.739  1.00  0.00     0.012 A   
ATOM     17  C11 UNL     1      -0.104  -1.783  -0.671  1.00  0.00     0.045 A   
ATOM     18  C8  UNL     1       0.706  -4.020  -2.190  1.00  0.00     0.037 A   
ATOM     19  C10 UNL     1       0.748  -2.738  -0.160  1.00  0.00     0.109 A   
ATOM     20  C9  UNL     1       1.141  -3.826  -0.897  1.00  0.00     0.108 A   
ATOM     21  O1  UNL     1       1.292  -2.727   1.085  1.00  0.00    -0.316 OA  
ATOM     22  O2  UNL     1       1.977  -4.644  -0.206  1.00  0.00    -0.316 OA  
ATOM     23  C12 UNL     1       2.026  -3.973   1.071  1.00  0.00     0.337 C   
ENDBRANCH  14  15
ENDBRANCH  11  14
ENDBRANCH   7  11
ENDBRANCH   1   7
BRANCH   3  24
ATOM     24  C15 UNL     1      -0.980   3.417   1.236  1.00  0.00     0.170 C   
BRANCH  24  25
ATOM     25  C16 UNL     1      -2.178   2.892   2.035  1.00  0.00     0.164 C   
BRANCH  25  26
ATOM     26  O3  UNL     1      -2.143   3.472   3.341  1.00  0.00    -0.387 OA  
ATOM     27  H22 UNL     1      -2.792   2.998   3.892  1.00  0.00     0.211 HD  
ENDBRANCH  25  26
BRANCH  25  28
ATOM     28  C17 UNL     1      -2.204   1.380   2.173  1.00  0.00    -0.018 A   
ATOM     29  C18 UNL     1      -3.210   0.634   1.538  1.00  0.00     0.008 A   
ATOM     30  C22 UNL     1      -1.229   0.703   2.923  1.00  0.00     0.008 A   
ATOM     31  C19 UNL     1      -3.238  -0.758   1.649  1.00  0.00     0.021 A   
ATOM     32  C21 UNL     1      -1.255  -0.690   3.029  1.00  0.00     0.021 A   
ATOM     33  C20 UNL     1      -2.259  -1.415   2.391  1.00  0.00     0.041 A   
ATOM     34  CL1 UNL     1      -2.279  -3.130   2.498  1.00  0.00    -0.084 Cl  
ENDBRANCH  25  28
ENDBRANCH  24  25
ENDBRANCH   3  24
TORSDOF 9
