REMARK SMILES CC(C)C[C@H]([NH2+]Cc1ccc2c(c1)OCO2)c1cn(CCc2cnc(Cl)s2)nn1
REMARK SMILES IDX 17 1 18 2 19 3 28 4 29 5 5 7 4 8 2 9 1 10 3 11 6 12 7 15
REMARK SMILES IDX 8 16 9 17 13 18 10 19 12 20 11 21 14 22 16 23 15 24 20 25
REMARK SMILES IDX 21 26 22 27 23 28 27 29 24 30 25 31 26 32
REMARK H PARENT 18 6 6 13 6 14
ROOT
ATOM     1   C14 UNL     1       1.496  -0.079   2.575  1.00  0.00     0.127 A   
ATOM     2   C15 UNL     1       2.267  -0.735   3.512  1.00  0.00     0.045 A   
ATOM     3   N2  UNL     1       1.418  -0.898   4.576  1.00  0.00    -0.212 N   
ATOM     4   N4  UNL     1       0.266  -0.233   4.373  1.00  0.00    -0.076 NA  
ATOM     5   N5  UNL     1       0.303   0.273   3.149  1.00  0.00    -0.132 NA  
ATOM     6   H20 UNL     1       3.239  -1.208   3.471  1.00  0.00     0.083 HD  
ENDROOT
BRANCH   1   7
ATOM     7   C5  UNL     1       1.744   0.129   1.116  1.00  0.00     0.114 C   
BRANCH   7   8
ATOM     8   C4  UNL     1       1.813   1.618   0.733  1.00  0.00     0.064 C   
BRANCH   8   9
ATOM     9   C2  UNL     1       2.072   1.927  -0.756  1.00  0.00    -0.012 C   
ATOM     10  C1  UNL     1       3.387   1.330  -1.258  1.00  0.00     0.007 C   
ATOM     11  C3  UNL     1       2.078   3.443  -0.973  1.00  0.00     0.007 C   
ENDBRANCH   8   9
ENDBRANCH   7   8
BRANCH   7  12
ATOM     12  N1  UNL     1       0.775  -0.641   0.258  1.00  0.00     0.249 N   
ATOM     13  H11 UNL     1       1.098  -0.648  -0.715  1.00  0.00     0.199 HD  
ATOM     14  H12 UNL     1       0.797  -1.634   0.554  1.00  0.00     0.199 HD  
BRANCH  12  15
ATOM     15  C6  UNL     1      -0.664  -0.246   0.282  1.00  0.00     0.164 C   
BRANCH  15  16
ATOM     16  C7  UNL     1      -1.384  -0.819  -0.910  1.00  0.00    -0.002 A   
ATOM     17  C8  UNL     1      -1.604  -0.024  -2.061  1.00  0.00     0.012 A   
ATOM     18  C12 UNL     1      -1.794  -2.164  -0.912  1.00  0.00     0.045 A   
ATOM     19  C9  UNL     1      -2.232  -0.554  -3.193  1.00  0.00     0.037 A   
ATOM     20  C11 UNL     1      -2.408  -2.656  -2.046  1.00  0.00     0.109 A   
ATOM     21  C10 UNL     1      -2.621  -1.874  -3.153  1.00  0.00     0.108 A   
ATOM     22  O1  UNL     1      -2.858  -3.927  -2.212  1.00  0.00    -0.316 OA  
ATOM     23  O2  UNL     1      -3.237  -2.552  -4.156  1.00  0.00    -0.316 OA  
ATOM     24  C13 UNL     1      -3.401  -3.852  -3.550  1.00  0.00     0.337 C   
ENDBRANCH  15  16
ENDBRANCH  12  15
ENDBRANCH   7  12
ENDBRANCH   1   7
BRANCH   3  25
ATOM     25  C16 UNL     1       1.496  -1.943   5.584  1.00  0.00     0.139 C   
BRANCH  25  26
ATOM     26  C17 UNL     1       0.624  -3.169   5.243  1.00  0.00     0.066 C   
BRANCH  26  27
ATOM     27  C18 UNL     1       0.759  -3.582   3.803  1.00  0.00     0.012 A   
ATOM     28  C19 UNL     1      -0.017  -3.183   2.727  1.00  0.00     0.124 A   
ATOM     29  S1  UNL     1       2.042  -4.567   3.236  1.00  0.00    -0.061 S   
ATOM     30  N3  UNL     1       0.520  -3.436   1.475  1.00  0.00    -0.237 NA  
ATOM     31  C20 UNL     1       1.546  -4.243   1.641  1.00  0.00     0.167 A   
ATOM     32  CL1 UNL     1       2.454  -4.835   0.314  1.00  0.00    -0.054 Cl  
ENDBRANCH  26  27
ENDBRANCH  25  26
ENDBRANCH   3  25
TORSDOF 9
