REMARK SMILES CC(C)[C@H]([NH2+]Cc1ccc2c(c1)OCO2)c1cn(CCc2nc[nH]n2)nn1
REMARK SMILES IDX 16 1 17 2 18 3 26 4 27 5 4 7 2 8 1 9 3 10 5 11 6 14 7 15
REMARK SMILES IDX 8 16 12 17 9 18 11 19 10 20 13 21 15 22 14 23 19 24 20 25
REMARK SMILES IDX 21 26 22 27 25 28 23 29 24 30
REMARK H PARENT 17 6 5 12 5 13 24 31
ROOT
ATOM     1   C13 UNL     1       0.729  -1.052   1.936  1.00  0.00     0.127 A   
ATOM     2   C14 UNL     1       1.324  -1.146   0.698  1.00  0.00     0.045 A   
ATOM     3   N2  UNL     1       1.109  -2.443   0.332  1.00  0.00    -0.212 N   
ATOM     4   N6  UNL     1       0.448  -3.116   1.291  1.00  0.00    -0.076 NA  
ATOM     5   N7  UNL     1       0.209  -2.273   2.281  1.00  0.00    -0.132 NA  
ATOM     6   H18 UNL     1       1.820  -0.435   0.052  1.00  0.00     0.083 HD  
ENDROOT
BRANCH   1   7
ATOM     7   C4  UNL     1       0.511   0.119   2.832  1.00  0.00     0.117 C   
BRANCH   7   8
ATOM     8   C2  UNL     1       1.589   0.287   3.934  1.00  0.00     0.037 C   
ATOM     9   C1  UNL     1       2.962   0.605   3.332  1.00  0.00     0.014 C   
ATOM     10  C3  UNL     1       1.707  -0.902   4.894  1.00  0.00     0.014 C   
ENDBRANCH   7   8
BRANCH   7  11
ATOM     11  N1  UNL     1      -0.843   0.013   3.501  1.00  0.00     0.249 N   
ATOM     12  H9  UNL     1      -0.905   0.669   4.282  1.00  0.00     0.199 HD  
ATOM     13  H10 UNL     1      -0.895  -0.940   3.888  1.00  0.00     0.199 HD  
BRANCH  11  14
ATOM     14  C5  UNL     1      -2.033   0.179   2.613  1.00  0.00     0.164 C   
BRANCH  14  15
ATOM     15  C6  UNL     1      -2.142   1.556   2.021  1.00  0.00    -0.002 A   
ATOM     16  C7  UNL     1      -2.468   2.668   2.832  1.00  0.00     0.012 A   
ATOM     17  C11 UNL     1      -1.891   1.750   0.652  1.00  0.00     0.045 A   
ATOM     18  C8  UNL     1      -2.533   3.955   2.291  1.00  0.00     0.037 A   
ATOM     19  C10 UNL     1      -1.960   3.031   0.149  1.00  0.00     0.109 A   
ATOM     20  C9  UNL     1      -2.273   4.102   0.947  1.00  0.00     0.108 A   
ATOM     21  O1  UNL     1      -1.735   3.393  -1.140  1.00  0.00    -0.316 OA  
ATOM     22  O2  UNL     1      -2.288   5.274   0.261  1.00  0.00    -0.316 OA  
ATOM     23  C12 UNL     1      -1.970   4.817  -1.069  1.00  0.00     0.337 C   
ENDBRANCH  14  15
ENDBRANCH  11  14
ENDBRANCH   7  11
ENDBRANCH   1   7
BRANCH   3  24
ATOM     24  C15 UNL     1       1.461  -3.096  -0.912  1.00  0.00     0.142 C   
BRANCH  24  25
ATOM     25  C16 UNL     1       0.323  -3.059  -1.921  1.00  0.00     0.100 C   
BRANCH  25  26
ATOM     26  C17 UNL     1       0.117  -1.701  -2.485  1.00  0.00     0.149 A   
ATOM     27  N3  UNL     1      -0.821  -0.829  -1.998  1.00  0.00    -0.223 NA  
ATOM     28  N5  UNL     1       0.871  -1.214  -3.478  1.00  0.00    -0.168 NA  
ATOM     29  C18 UNL     1      -0.707   0.201  -2.806  1.00  0.00     0.205 A   
ATOM     30  N4  UNL     1       0.288  -0.027  -3.701  1.00  0.00    -0.226 N   
ATOM     31  H24 UNL     1       0.619   0.558  -4.459  1.00  0.00     0.177 HD  
ENDBRANCH  25  26
ENDBRANCH  24  25
ENDBRANCH   3  24
TORSDOF 8
