REMARK SMILES c1cnc2cc(-n3cc([C@@H]([NH2+]Cc4ccc5c(c4)OCO5)C4CCCCC4)nn3)ccc2n1
REMARK SMILES IDX 10 1 9 2 7 3 8 4 29 5 28 6 6 7 1 8 2 9 33 10 3 11 32 12 4 13
REMARK SMILES IDX 31 14 5 15 30 16 11 17 12 20 13 21 14 22 18 23 15 24 17 25
REMARK SMILES IDX 16 26 19 27 21 28 20 29 22 30 23 31 27 32 24 33 26 34 25 35
REMARK H PARENT 11 18 11 19
ROOT
ATOM     1   C8  UNL     1       0.315  -0.801   0.295  1.00  0.00     0.117 C   
ENDROOT
BRANCH   1   2
ATOM     2   C7  UNL     1       0.582   0.179  -0.808  1.00  0.00     0.127 A   
ATOM     3   N2  UNL     1       1.360   1.496  -2.376  1.00  0.00    -0.181 N   
ATOM     4   C6  UNL     1       1.754   0.602  -1.395  1.00  0.00     0.135 A   
ATOM     5   N5  UNL     1       0.008   1.620  -2.336  1.00  0.00    -0.071 NA  
ATOM     6   N4  UNL     1      -0.471   0.823  -1.398  1.00  0.00    -0.131 NA  
BRANCH   3   7
ATOM     7   C5  UNL     1       2.152   2.207  -3.312  1.00  0.00     0.060 A   
ATOM     8   C1  UNL     1       3.772   5.104  -6.959  1.00  0.00     0.132 A   
ATOM     9   C2  UNL     1       2.398   5.256  -6.924  1.00  0.00     0.132 A   
ATOM     10  N6  UNL     1       4.431   4.289  -6.102  1.00  0.00    -0.253 NA  
ATOM     11  N1  UNL     1       1.625   4.598  -6.032  1.00  0.00    -0.253 NA  
ATOM     12  C25 UNL     1       3.674   3.627  -5.207  1.00  0.00     0.089 A   
ATOM     13  C3  UNL     1       2.265   3.780  -5.171  1.00  0.00     0.091 A   
ATOM     14  C24 UNL     1       4.284   2.771  -4.295  1.00  0.00     0.032 A   
ATOM     15  C4  UNL     1       1.529   3.071  -4.229  1.00  0.00     0.056 A   
ATOM     16  C23 UNL     1       3.541   2.058  -3.347  1.00  0.00     0.028 A   
ENDBRANCH   3   7
ENDBRANCH   1   2
BRANCH   1  17
ATOM     17  N3  UNL     1      -1.138  -0.741   0.696  1.00  0.00     0.249 N   
ATOM     18  H6  UNL     1      -1.633  -0.205  -0.042  1.00  0.00     0.199 HD  
ATOM     19  H7  UNL     1      -1.582  -1.667   0.684  1.00  0.00     0.199 HD  
BRANCH  17  20
ATOM     20  C9  UNL     1      -1.418  -0.078   1.998  1.00  0.00     0.164 C   
BRANCH  20  21
ATOM     21  C10 UNL     1      -2.885  -0.139   2.314  1.00  0.00    -0.002 A   
ATOM     22  C11 UNL     1      -3.450  -1.324   2.848  1.00  0.00     0.012 A   
ATOM     23  C15 UNL     1      -3.714   0.963   2.037  1.00  0.00     0.045 A   
ATOM     24  C12 UNL     1      -4.822  -1.413   3.105  1.00  0.00     0.037 A   
ATOM     25  C14 UNL     1      -5.060   0.846   2.313  1.00  0.00     0.109 A   
ATOM     26  C13 UNL     1      -5.600  -0.309   2.829  1.00  0.00     0.108 A   
ATOM     27  O1  UNL     1      -5.991   1.822   2.133  1.00  0.00    -0.316 OA  
ATOM     28  O2  UNL     1      -6.941  -0.213   3.020  1.00  0.00    -0.316 OA  
ATOM     29  C16 UNL     1      -7.184   1.148   2.595  1.00  0.00     0.337 C   
ENDBRANCH  20  21
ENDBRANCH  17  20
ENDBRANCH   1  17
BRANCH   1  30
ATOM     30  C17 UNL     1       0.717  -2.254  -0.074  1.00  0.00     0.043 C   
ATOM     31  C18 UNL     1       0.634  -3.188   1.151  1.00  0.00     0.010 C   
ATOM     32  C22 UNL     1      -0.079  -2.838  -1.261  1.00  0.00     0.010 C   
ATOM     33  C19 UNL     1       1.062  -4.614   0.810  1.00  0.00     0.001 C   
ATOM     34  C21 UNL     1       0.352  -4.269  -1.582  1.00  0.00     0.001 C   
ATOM     35  C20 UNL     1       0.257  -5.174  -0.358  1.00  0.00     0.000 C   
ENDBRANCH   1  30
TORSDOF 6
