REMARK SMILES NCc1ccc(-n2cc([C@@H]([NH2+]Cc3ccc4c(c3)OCO4)C3CCCC3)nn2)cc1
REMARK SMILES IDX 7 1 8 2 9 3 27 4 28 5 6 6 3 7 4 8 30 9 5 10 29 11 2 12 1 13
REMARK SMILES IDX 10 16 11 17 12 20 13 21 14 22 18 23 15 24 17 25 16 26 19 27
REMARK SMILES IDX 21 28 20 29 22 30 23 31 26 32 24 33 25 34
REMARK H PARENT 1 14 1 15 11 18 11 19
ROOT
ATOM     1   N2  UNL     1      -1.728  -1.709   1.401  1.00  0.00    -0.181 N   
ATOM     2   C6  UNL     1      -0.451  -2.209   1.572  1.00  0.00     0.135 A   
ATOM     3   C7  UNL     1       0.370  -1.340   0.888  1.00  0.00     0.127 A   
ATOM     4   N4  UNL     1      -0.393  -0.361   0.318  1.00  0.00    -0.131 NA  
ATOM     5   N5  UNL     1      -1.658  -0.599   0.620  1.00  0.00    -0.071 NA  
ENDROOT
BRANCH   1   6
ATOM     6   C5  UNL     1      -2.958  -2.202   1.903  1.00  0.00     0.058 A   
ATOM     7   C2  UNL     1      -5.423  -3.140   2.891  1.00  0.00    -0.034 A   
ATOM     8   C3  UNL     1      -5.370  -1.996   2.085  1.00  0.00     0.007 A   
ATOM     9   C23 UNL     1      -4.232  -3.817   3.185  1.00  0.00     0.007 A   
ATOM     10  C4  UNL     1      -4.149  -1.526   1.596  1.00  0.00     0.026 A   
ATOM     11  C22 UNL     1      -3.005  -3.353   2.700  1.00  0.00     0.026 A   
BRANCH   7  12
ATOM     12  C1  UNL     1      -6.746  -3.657   3.400  1.00  0.00     0.113 C   
BRANCH  12  13
ATOM     13  N1  UNL     1      -7.352  -4.580   2.452  1.00  0.00    -0.327 NA  
ATOM     14  H1  UNL     1      -7.488  -4.106   1.561  1.00  0.00     0.119 HD  
ATOM     15  H2  UNL     1      -6.708  -5.347   2.267  1.00  0.00     0.119 HD  
ENDBRANCH  12  13
ENDBRANCH   7  12
ENDBRANCH   1   6
BRANCH   3  16
ATOM     16  C8  UNL     1       1.853  -1.328   0.689  1.00  0.00     0.117 C   
BRANCH  16  17
ATOM     17  N3  UNL     1       2.212  -0.503  -0.518  1.00  0.00     0.249 N   
ATOM     18  H9  UNL     1       1.603   0.331  -0.503  1.00  0.00     0.199 HD  
ATOM     19  H10 UNL     1       3.173  -0.150  -0.477  1.00  0.00     0.199 HD  
BRANCH  17  20
ATOM     20  C9  UNL     1       1.995  -1.169  -1.833  1.00  0.00     0.164 C   
BRANCH  20  21
ATOM     21  C10 UNL     1       2.309  -0.221  -2.955  1.00  0.00    -0.002 A   
ATOM     22  C11 UNL     1       1.312   0.658  -3.442  1.00  0.00     0.012 A   
ATOM     23  C15 UNL     1       3.607  -0.160  -3.488  1.00  0.00     0.045 A   
ATOM     24  C12 UNL     1       1.600   1.579  -4.455  1.00  0.00     0.037 A   
ATOM     25  C14 UNL     1       3.857   0.759  -4.486  1.00  0.00     0.109 A   
ATOM     26  C13 UNL     1       2.882   1.604  -4.956  1.00  0.00     0.108 A   
ATOM     27  O1  UNL     1       5.051   0.947  -5.106  1.00  0.00    -0.316 OA  
ATOM     28  O2  UNL     1       3.339   2.429  -5.934  1.00  0.00    -0.316 OA  
ATOM     29  C16 UNL     1       4.711   1.993  -6.045  1.00  0.00     0.337 C   
ENDBRANCH  20  21
ENDBRANCH  17  20
ENDBRANCH  16  17
BRANCH  16  30
ATOM     30  C17 UNL     1       2.595  -0.802   1.934  1.00  0.00     0.043 C   
ATOM     31  C18 UNL     1       2.370   0.678   2.273  1.00  0.00     0.010 C   
ATOM     32  C21 UNL     1       4.126  -0.969   1.879  1.00  0.00     0.010 C   
ATOM     33  C19 UNL     1       3.570   1.021   3.141  1.00  0.00     0.001 C   
ATOM     34  C20 UNL     1       4.718   0.330   2.424  1.00  0.00     0.001 C   
ENDBRANCH  16  30
ENDBRANCH   3  16
TORSDOF 8
