REMARK SMILES Oc1ccc(CCn2cc([C@@H]([NH2+]Cc3ccc4c(c3)OCO4)C3CCCCC3)nn2)c(O)c1
REMARK SMILES IDX 8 1 9 2 10 3 29 4 30 5 7 7 6 8 5 9 2 10 3 11 33 12 4 13
REMARK SMILES IDX 31 14 1 15 32 17 11 19 12 20 13 23 14 24 15 25 19 26 16 27
REMARK SMILES IDX 18 28 17 29 20 30 22 31 21 32 23 33 24 34 28 35 25 36 27 37
REMARK SMILES IDX 26 38
REMARK H PARENT 9 6 1 16 32 18 12 21 12 22
ROOT
ATOM     1   N1  UNL     1      -1.176  -0.888  -2.585  1.00  0.00    -0.212 N   
ATOM     2   C7  UNL     1      -1.583  -0.167  -1.498  1.00  0.00     0.045 A   
ATOM     3   C8  UNL     1      -1.116  -0.892  -0.426  1.00  0.00     0.127 A   
ATOM     4   N3  UNL     1      -0.509  -2.035  -0.890  1.00  0.00    -0.132 NA  
ATOM     5   N4  UNL     1      -0.575  -2.033  -2.210  1.00  0.00    -0.076 NA  
ATOM     6   H8  UNL     1      -2.086   0.785  -1.594  1.00  0.00     0.083 HD  
ENDROOT
BRANCH   1   7
ATOM     7   C6  UNL     1      -1.272  -0.522  -3.982  1.00  0.00     0.139 C   
BRANCH   7   8
ATOM     8   C5  UNL     1       0.074  -0.104  -4.582  1.00  0.00     0.059 C   
BRANCH   8   9
ATOM     9   C4  UNL     1       0.788   0.996  -3.824  1.00  0.00    -0.016 A   
ATOM     10  C1  UNL     1       2.151   2.994  -2.418  1.00  0.00     0.074 A   
ATOM     11  C2  UNL     1       2.727   1.737  -2.545  1.00  0.00     0.033 A   
ATOM     12  C25 UNL     1       0.911   3.274  -2.980  1.00  0.00     0.066 A   
ATOM     13  C3  UNL     1       2.043   0.739  -3.244  1.00  0.00     0.009 A   
ATOM     14  C24 UNL     1       0.243   2.277  -3.688  1.00  0.00     0.077 A   
BRANCH  10  15
ATOM     15  O1  UNL     1       2.776   3.995  -1.736  1.00  0.00    -0.361 OA  
ATOM     16  H1  UNL     1       3.711   3.753  -1.619  1.00  0.00     0.218 HD  
ENDBRANCH  10  15
BRANCH  14  17
ATOM     17  O4  UNL     1      -0.969   2.544  -4.259  1.00  0.00    -0.361 OA  
ATOM     18  H30 UNL     1      -1.073   3.511  -4.314  1.00  0.00     0.218 HD  
ENDBRANCH  14  17
ENDBRANCH   8   9
ENDBRANCH   7   8
ENDBRANCH   1   7
BRANCH   3  19
ATOM     19  C9  UNL     1      -1.144  -0.620   1.047  1.00  0.00     0.117 C   
BRANCH  19  20
ATOM     20  N2  UNL     1      -0.487  -1.758   1.785  1.00  0.00     0.249 N   
ATOM     21  H10 UNL     1       0.270  -2.096   1.169  1.00  0.00     0.199 HD  
ATOM     22  H11 UNL     1      -0.034  -1.464   2.654  1.00  0.00     0.199 HD  
BRANCH  20  23
ATOM     23  C10 UNL     1      -1.363  -2.930   2.059  1.00  0.00     0.164 C   
BRANCH  23  24
ATOM     24  C11 UNL     1      -0.528  -4.112   2.458  1.00  0.00    -0.002 A   
ATOM     25  C12 UNL     1      -0.164  -5.080   1.493  1.00  0.00     0.012 A   
ATOM     26  C16 UNL     1      -0.033  -4.220   3.769  1.00  0.00     0.045 A   
ATOM     27  C13 UNL     1       0.678  -6.147   1.826  1.00  0.00     0.037 A   
ATOM     28  C15 UNL     1       0.805  -5.278   4.061  1.00  0.00     0.109 A   
ATOM     29  C14 UNL     1       1.149  -6.215   3.118  1.00  0.00     0.108 A   
ATOM     30  O2  UNL     1       1.393  -5.512   5.263  1.00  0.00    -0.316 OA  
ATOM     31  O3  UNL     1       1.988  -7.162   3.612  1.00  0.00    -0.316 OA  
ATOM     32  C17 UNL     1       2.149  -6.710   4.972  1.00  0.00     0.337 C   
ENDBRANCH  23  24
ENDBRANCH  20  23
ENDBRANCH  19  20
BRANCH  19  33
ATOM     33  C18 UNL     1      -0.463   0.726   1.417  1.00  0.00     0.043 C   
ATOM     34  C19 UNL     1       1.053   0.754   1.137  1.00  0.00     0.010 C   
ATOM     35  C23 UNL     1      -0.745   1.129   2.879  1.00  0.00     0.010 C   
ATOM     36  C20 UNL     1       1.658   2.116   1.477  1.00  0.00     0.001 C   
ATOM     37  C22 UNL     1      -0.130   2.485   3.219  1.00  0.00     0.001 C   
ATOM     38  C21 UNL     1       1.366   2.516   2.921  1.00  0.00     0.000 C   
ENDBRANCH  19  33
ENDBRANCH   3  19
TORSDOF 10
