REMARK SMILES COc1cccc(Cn2cc([C@@H]([NH2+]Cc3ccc4c(c3)OCO4)C(C)C)nn2)c1C
REMARK SMILES IDX 9 1 10 2 11 3 27 4 28 5 8 7 7 8 3 9 4 10 29 11 5 12 6 13
REMARK SMILES IDX 30 14 2 15 1 16 12 17 13 18 14 21 15 22 16 23 20 24 17 25
REMARK SMILES IDX 19 26 18 27 21 28 23 29 22 30 24 31 25 32 26 33
REMARK H PARENT 10 6 13 19 13 20
ROOT
ATOM     1   N1  UNL     1      -3.450  -0.740  -0.759  1.00  0.00    -0.208 N   
ATOM     2   C8  UNL     1      -3.045  -1.055   0.512  1.00  0.00     0.046 A   
ATOM     3   C9  UNL     1      -2.303   0.036   0.905  1.00  0.00     0.127 A   
ATOM     4   N3  UNL     1      -2.307   0.969  -0.101  1.00  0.00    -0.132 NA  
ATOM     5   N4  UNL     1      -3.017   0.488  -1.107  1.00  0.00    -0.076 NA  
ATOM     6   H9  UNL     1      -3.287  -2.000   0.978  1.00  0.00     0.083 HD  
ENDROOT
BRANCH   1   7
ATOM     7   C7  UNL     1      -4.226  -1.546  -1.690  1.00  0.00     0.169 C   
BRANCH   7   8
ATOM     8   C6  UNL     1      -3.580  -2.894  -1.935  1.00  0.00    -0.023 A   
ATOM     9   C2  UNL     1      -1.783  -4.330  -2.764  1.00  0.00     0.078 A   
ATOM     10  C3  UNL     1      -2.434  -5.444  -2.230  1.00  0.00     0.034 A   
ATOM     11  C22 UNL     1      -2.360  -3.045  -2.640  1.00  0.00    -0.016 A   
ATOM     12  C4  UNL     1      -3.652  -5.299  -1.570  1.00  0.00     0.003 A   
ATOM     13  C5  UNL     1      -4.218  -4.037  -1.420  1.00  0.00     0.006 A   
ATOM     14  C23 UNL     1      -1.637  -1.854  -3.224  1.00  0.00     0.047 C   
BRANCH   9  15
ATOM     15  O1  UNL     1      -0.568  -4.383  -3.400  1.00  0.00    -0.349 OA  
ATOM     16  C1  UNL     1      -0.088  -5.665  -3.786  1.00  0.00     0.203 C   
ENDBRANCH   9  15
ENDBRANCH   7   8
ENDBRANCH   1   7
BRANCH   3  17
ATOM     17  C10 UNL     1      -1.509   0.293   2.145  1.00  0.00     0.117 C   
BRANCH  17  18
ATOM     18  N2  UNL     1      -0.341   1.190   1.837  1.00  0.00     0.249 N   
ATOM     19  H11 UNL     1      -0.704   1.958   1.251  1.00  0.00     0.199 HD  
ATOM     20  H12 UNL     1       0.046   1.626   2.678  1.00  0.00     0.199 HD  
BRANCH  18  21
ATOM     21  C11 UNL     1       0.766   0.547   1.073  1.00  0.00     0.164 C   
BRANCH  21  22
ATOM     22  C12 UNL     1       1.839   1.551   0.757  1.00  0.00    -0.002 A   
ATOM     23  C13 UNL     1       1.705   2.403  -0.365  1.00  0.00     0.012 A   
ATOM     24  C17 UNL     1       2.954   1.686   1.602  1.00  0.00     0.045 A   
ATOM     25  C14 UNL     1       2.673   3.372  -0.651  1.00  0.00     0.037 A   
ATOM     26  C16 UNL     1       3.891   2.649   1.290  1.00  0.00     0.109 A   
ATOM     27  C15 UNL     1       3.755   3.469   0.197  1.00  0.00     0.108 A   
ATOM     28  O2  UNL     1       5.022   2.908   1.996  1.00  0.00    -0.316 OA  
ATOM     29  O3  UNL     1       4.783   4.349   0.078  1.00  0.00    -0.316 OA  
ATOM     30  C18 UNL     1       5.599   3.974   1.209  1.00  0.00     0.337 C   
ENDBRANCH  21  22
ENDBRANCH  18  21
ENDBRANCH  17  18
BRANCH  17  31
ATOM     31  C19 UNL     1      -2.372   0.899   3.282  1.00  0.00     0.037 C   
ATOM     32  C20 UNL     1      -2.845   2.332   3.011  1.00  0.00     0.014 C   
ATOM     33  C21 UNL     1      -1.645   0.843   4.632  1.00  0.00     0.014 C   
ENDBRANCH  17  31
ENDBRANCH   3  17
TORSDOF 8
