REMARK SMILES Cc1ccc(C)c([C@@H](O)Cn2cc([C@@H]([NH2+]Cc3ccc4c(c3)OCO4)C(C)(C)C)nn2)c1
REMARK SMILES IDX 11 1 12 2 13 3 30 4 31 5 10 7 8 8 7 9 2 10 3 11 32 12 4 13
REMARK SMILES IDX 5 14 1 15 6 16 9 17 14 19 15 20 16 23 17 24 18 25 22 26
REMARK SMILES IDX 19 27 21 28 20 29 23 30 25 31 24 32 26 33 27 34 28 35 29 36
REMARK H PARENT 12 6 9 18 15 21 15 22
ROOT
ATOM     1   N1  UNL     1      -0.938  -2.764  -0.723  1.00  0.00    -0.209 N   
ATOM     2   C10 UNL     1       0.156  -2.155  -0.176  1.00  0.00     0.046 A   
ATOM     3   C11 UNL     1      -0.356  -1.452   0.893  1.00  0.00     0.127 A   
ATOM     4   N3  UNL     1      -1.710  -1.658   0.959  1.00  0.00    -0.132 NA  
ATOM     5   N4  UNL     1      -2.052  -2.474  -0.025  1.00  0.00    -0.076 NA  
ATOM     6   H13 UNL     1       1.146  -2.249  -0.603  1.00  0.00     0.083 HD  
ENDROOT
BRANCH   1   7
ATOM     7   C9  UNL     1      -0.999  -3.578  -1.913  1.00  0.00     0.170 C   
BRANCH   7   8
ATOM     8   C8  UNL     1      -1.724  -2.900  -3.084  1.00  0.00     0.164 C   
BRANCH   8   9
ATOM     9   C7  UNL     1      -1.151  -1.542  -3.468  1.00  0.00    -0.015 A   
ATOM     10  C2  UNL     1       0.750  -0.253  -4.334  1.00  0.00    -0.051 A   
ATOM     11  C3  UNL     1      -0.007   0.914  -4.228  1.00  0.00     0.004 A   
ATOM     12  C25 UNL     1       0.166  -1.473  -3.971  1.00  0.00     0.010 A   
ATOM     13  C4  UNL     1      -1.310   0.865  -3.735  1.00  0.00     0.004 A   
ATOM     14  C5  UNL     1      -1.894  -0.351  -3.342  1.00  0.00    -0.045 A   
ATOM     15  C1  UNL     1       2.144  -0.208  -4.892  1.00  0.00     0.044 C   
ATOM     16  C6  UNL     1      -3.318  -0.334  -2.855  1.00  0.00     0.045 C   
ENDBRANCH   8   9
BRANCH   8  17
ATOM     17  O1  UNL     1      -1.640  -3.761  -4.222  1.00  0.00    -0.387 OA  
ATOM     18  H10 UNL     1      -1.955  -3.247  -4.989  1.00  0.00     0.211 HD  
ENDBRANCH   8  17
ENDBRANCH   7   8
ENDBRANCH   1   7
BRANCH   3  19
ATOM     19  C12 UNL     1       0.295  -0.481   1.829  1.00  0.00     0.120 C   
BRANCH  19  20
ATOM     20  N2  UNL     1      -0.612   0.721   2.004  1.00  0.00     0.250 N   
ATOM     21  H15 UNL     1      -1.535   0.354   2.274  1.00  0.00     0.199 HD  
ATOM     22  H16 UNL     1      -0.282   1.319   2.764  1.00  0.00     0.199 HD  
BRANCH  20  23
ATOM     23  C13 UNL     1      -0.815   1.571   0.789  1.00  0.00     0.164 C   
BRANCH  23  24
ATOM     24  C14 UNL     1       0.455   2.228   0.328  1.00  0.00    -0.002 A   
ATOM     25  C15 UNL     1       1.164   1.701  -0.779  1.00  0.00     0.012 A   
ATOM     26  C19 UNL     1       0.985   3.325   1.029  1.00  0.00     0.045 A   
ATOM     27  C16 UNL     1       2.388   2.250  -1.175  1.00  0.00     0.037 A   
ATOM     28  C18 UNL     1       2.192   3.845   0.609  1.00  0.00     0.109 A   
ATOM     29  C17 UNL     1       2.876   3.320  -0.457  1.00  0.00     0.108 A   
ATOM     30  O2  UNL     1       2.845   4.894   1.177  1.00  0.00    -0.316 OA  
ATOM     31  O3  UNL     1       4.049   3.968  -0.687  1.00  0.00    -0.316 OA  
ATOM     32  C20 UNL     1       3.999   5.003   0.316  1.00  0.00     0.337 C   
ENDBRANCH  23  24
ENDBRANCH  20  23
ENDBRANCH  19  20
BRANCH  19  33
ATOM     33  C21 UNL     1       0.687  -1.087   3.224  1.00  0.00     0.010 C   
ATOM     34  C22 UNL     1      -0.534  -1.532   4.052  1.00  0.00     0.017 C   
ATOM     35  C23 UNL     1       1.489  -0.054   4.051  1.00  0.00     0.017 C   
ATOM     36  C24 UNL     1       1.612  -2.310   3.025  1.00  0.00     0.017 C   
ENDBRANCH  19  33
ENDBRANCH   3  19
TORSDOF 9
