REMARK SMILES Cc1ccc(C)c([C@H](O)Cn2cc([C@@H]([NH2+]Cc3ccc4c(c3)OCO4)C(C)(C)C)nn2)c1
REMARK SMILES IDX 11 1 12 2 13 3 30 4 31 5 10 7 8 8 7 9 2 10 3 11 32 12 4 13
REMARK SMILES IDX 5 14 1 15 6 16 9 17 14 19 15 20 16 23 17 24 18 25 22 26
REMARK SMILES IDX 19 27 21 28 20 29 23 30 25 31 24 32 26 33 27 34 28 35 29 36
REMARK H PARENT 12 6 9 18 15 21 15 22
ROOT
ATOM     1   N1  UNL     1      -1.248  -1.635   0.516  1.00  0.00    -0.209 N   
ATOM     2   C10 UNL     1      -0.252  -1.008  -0.176  1.00  0.00     0.046 A   
ATOM     3   C11 UNL     1      -0.830   0.167  -0.602  1.00  0.00     0.127 A   
ATOM     4   N3  UNL     1      -2.144   0.187  -0.207  1.00  0.00    -0.132 NA  
ATOM     5   N4  UNL     1      -2.393  -0.931   0.453  1.00  0.00    -0.076 NA  
ATOM     6   H13 UNL     1       0.744  -1.423  -0.265  1.00  0.00     0.083 HD  
ENDROOT
BRANCH   1   7
ATOM     7   C9  UNL     1      -1.187  -2.878   1.248  1.00  0.00     0.170 C   
BRANCH   7   8
ATOM     8   C8  UNL     1      -1.086  -2.671   2.762  1.00  0.00     0.164 C   
BRANCH   8   9
ATOM     9   C7  UNL     1       0.207  -1.986   3.182  1.00  0.00    -0.015 A   
ATOM     10  C2  UNL     1       2.647  -2.120   3.407  1.00  0.00    -0.051 A   
ATOM     11  C3  UNL     1       2.662  -0.820   3.909  1.00  0.00     0.004 A   
ATOM     12  C25 UNL     1       1.420  -2.696   3.060  1.00  0.00     0.010 A   
ATOM     13  C4  UNL     1       1.473  -0.103   4.042  1.00  0.00     0.004 A   
ATOM     14  C5  UNL     1       0.239  -0.666   3.679  1.00  0.00    -0.045 A   
ATOM     15  C1  UNL     1       3.913  -2.919   3.318  1.00  0.00     0.044 C   
ATOM     16  C6  UNL     1      -1.007   0.154   3.882  1.00  0.00     0.045 C   
ENDBRANCH   8   9
BRANCH   8  17
ATOM     17  O1  UNL     1      -1.165  -3.951   3.400  1.00  0.00    -0.387 OA  
ATOM     18  H10 UNL     1      -0.866  -3.833   4.321  1.00  0.00     0.211 HD  
ENDBRANCH   8  17
ENDBRANCH   7   8
ENDBRANCH   1   7
BRANCH   3  19
ATOM     19  C12 UNL     1      -0.285   1.298  -1.419  1.00  0.00     0.120 C   
BRANCH  19  20
ATOM     20  N2  UNL     1      -1.390   1.860  -2.296  1.00  0.00     0.250 N   
ATOM     21  H15 UNL     1      -1.102   2.735  -2.735  1.00  0.00     0.199 HD  
ATOM     22  H16 UNL     1      -2.176   2.071  -1.667  1.00  0.00     0.199 HD  
BRANCH  20  23
ATOM     23  C13 UNL     1      -1.926   0.954  -3.358  1.00  0.00     0.164 C   
BRANCH  23  24
ATOM     24  C14 UNL     1      -0.907   0.601  -4.405  1.00  0.00    -0.002 A   
ATOM     25  C15 UNL     1      -0.502   1.557  -5.367  1.00  0.00     0.012 A   
ATOM     26  C19 UNL     1      -0.332  -0.682  -4.418  1.00  0.00     0.045 A   
ATOM     27  C16 UNL     1       0.464   1.242  -6.329  1.00  0.00     0.037 A   
ATOM     28  C18 UNL     1       0.618  -0.959  -5.378  1.00  0.00     0.109 A   
ATOM     29  C17 UNL     1       1.005  -0.025  -6.307  1.00  0.00     0.108 A   
ATOM     30  O2  UNL     1       1.272  -2.140  -5.525  1.00  0.00    -0.316 OA  
ATOM     31  O3  UNL     1       1.947  -0.503  -7.161  1.00  0.00    -0.316 OA  
ATOM     32  C20 UNL     1       2.086  -1.860  -6.687  1.00  0.00     0.337 C   
ENDBRANCH  23  24
ENDBRANCH  20  23
ENDBRANCH  19  20
BRANCH  19  33
ATOM     33  C21 UNL     1       0.363   2.446  -0.563  1.00  0.00     0.010 C   
ATOM     34  C22 UNL     1       0.984   3.522  -1.483  1.00  0.00     0.017 C   
ATOM     35  C23 UNL     1      -0.648   3.138   0.373  1.00  0.00     0.017 C   
ATOM     36  C24 UNL     1       1.513   1.879   0.302  1.00  0.00     0.017 C   
ENDBRANCH  19  33
ENDBRANCH   3  19
TORSDOF 9
