REMARK SMILES CCc1ccccc1[C@H](CO)n1cc([C@@H]([NH2+]Cc2ccc3c(c2)OCO3)C2CCCCC2)nn1
REMARK SMILES IDX 12 1 13 2 14 3 33 4 34 5 9 7 8 8 3 9 4 10 5 11 7 12 6 13
REMARK SMILES IDX 2 14 1 15 10 16 11 17 15 19 16 20 17 23 18 24 19 25 23 26
REMARK SMILES IDX 20 27 22 28 21 29 24 30 26 31 25 32 27 33 28 34 32 35 29 36
REMARK SMILES IDX 31 37 30 38
REMARK H PARENT 13 6 11 18 16 21 16 22
ROOT
ATOM     1   N1  UNL     1      -1.967  -0.494  -0.507  1.00  0.00    -0.202 N   
ATOM     2   C11 UNL     1      -0.900  -1.315  -0.251  1.00  0.00     0.046 A   
ATOM     3   C12 UNL     1       0.117  -0.456   0.094  1.00  0.00     0.127 A   
ATOM     4   N3  UNL     1      -0.341   0.837   0.006  1.00  0.00    -0.132 NA  
ATOM     5   N4  UNL     1      -1.601   0.803  -0.392  1.00  0.00    -0.075 NA  
ATOM     6   H14 UNL     1      -0.978  -2.392  -0.315  1.00  0.00     0.083 HD  
ENDROOT
BRANCH   1   7
ATOM     7   C9  UNL     1      -3.346  -0.850  -0.844  1.00  0.00     0.155 C   
BRANCH   7   8
ATOM     8   C8  UNL     1      -3.961  -1.710   0.264  1.00  0.00    -0.020 A   
ATOM     9   C3  UNL     1      -4.579  -1.132   1.406  1.00  0.00    -0.043 A   
ATOM     10  C4  UNL     1      -5.098  -1.971   2.411  1.00  0.00     0.004 A   
ATOM     11  C5  UNL     1      -5.013  -3.356   2.312  1.00  0.00     0.000 A   
ATOM     12  C7  UNL     1      -3.891  -3.117   0.190  1.00  0.00     0.006 A   
ATOM     13  C6  UNL     1      -4.415  -3.928   1.199  1.00  0.00     0.000 A   
BRANCH   9  14
ATOM     14  C2  UNL     1      -4.760   0.361   1.600  1.00  0.00     0.032 C   
ATOM     15  C1  UNL     1      -6.057   0.857   0.974  1.00  0.00     0.009 C   
ENDBRANCH   9  14
ENDBRANCH   7   8
BRANCH   7  16
ATOM     16  C10 UNL     1      -3.463  -1.377  -2.292  1.00  0.00     0.185 C   
BRANCH  16  17
ATOM     17  O1  UNL     1      -2.582  -2.462  -2.587  1.00  0.00    -0.394 OA  
ATOM     18  H13 UNL     1      -2.815  -2.780  -3.481  1.00  0.00     0.210 HD  
ENDBRANCH  16  17
ENDBRANCH   7  16
ENDBRANCH   1   7
BRANCH   3  19
ATOM     19  C13 UNL     1       1.539  -0.706   0.485  1.00  0.00     0.117 C   
BRANCH  19  20
ATOM     20  N2  UNL     1       2.362   0.529   0.193  1.00  0.00     0.249 N   
ATOM     21  H16 UNL     1       1.775   1.333   0.469  1.00  0.00     0.199 HD  
ATOM     22  H17 UNL     1       3.207   0.579   0.769  1.00  0.00     0.199 HD  
BRANCH  20  23
ATOM     23  C14 UNL     1       2.723   0.725  -1.237  1.00  0.00     0.164 C   
BRANCH  23  24
ATOM     24  C15 UNL     1       3.271   2.107  -1.455  1.00  0.00    -0.002 A   
ATOM     25  C16 UNL     1       4.663   2.354  -1.382  1.00  0.00     0.012 A   
ATOM     26  C20 UNL     1       2.385   3.178  -1.678  1.00  0.00     0.045 A   
ATOM     27  C17 UNL     1       5.169   3.650  -1.538  1.00  0.00     0.037 A   
ATOM     28  C19 UNL     1       2.917   4.441  -1.830  1.00  0.00     0.109 A   
ATOM     29  C18 UNL     1       4.270   4.672  -1.760  1.00  0.00     0.108 A   
ATOM     30  O2  UNL     1       2.208   5.578  -2.054  1.00  0.00    -0.316 OA  
ATOM     31  O3  UNL     1       4.580   5.984  -1.925  1.00  0.00    -0.316 OA  
ATOM     32  C21 UNL     1       3.270   6.554  -2.137  1.00  0.00     0.337 C   
ENDBRANCH  23  24
ENDBRANCH  20  23
ENDBRANCH  19  20
BRANCH  19  33
ATOM     33  C22 UNL     1       1.739  -1.079   1.980  1.00  0.00     0.043 C   
ATOM     34  C23 UNL     1       1.216  -0.017   2.968  1.00  0.00     0.010 C   
ATOM     35  C27 UNL     1       1.144  -2.461   2.310  1.00  0.00     0.010 C   
ATOM     36  C24 UNL     1       1.472  -0.425   4.419  1.00  0.00     0.001 C   
ATOM     37  C26 UNL     1       1.398  -2.858   3.763  1.00  0.00     0.001 C   
ATOM     38  C25 UNL     1       0.884  -1.798   4.730  1.00  0.00     0.000 C   
ENDBRANCH  19  33
ENDBRANCH   3  19
TORSDOF 10
