REMARK SMILES CC(C)C[C@H]([NH2+]Cc1ccc2c(c1)OCO2)c1cn(Cc2ccccc2N([O-])[O-])nn1
REMARK SMILES IDX 17 1 18 2 19 3 30 4 31 5 5 7 4 8 2 9 1 10 3 11 6 12 7 15
REMARK SMILES IDX 8 16 9 17 13 18 10 19 12 20 11 21 14 22 16 23 15 24 20 25
REMARK SMILES IDX 21 26 22 27 26 28 23 29 25 30 24 31 27 32 28 33 29 34
REMARK H PARENT 18 6 6 13 6 14
ROOT
ATOM     1   C14 UNL     1       1.771   0.963  -0.269  1.00  0.00     0.127 A   
ATOM     2   C15 UNL     1       1.482   0.935  -1.618  1.00  0.00     0.046 A   
ATOM     3   N2  UNL     1       0.619   1.984  -1.787  1.00  0.00    -0.208 N   
ATOM     4   N4  UNL     1       0.547   2.726  -0.668  1.00  0.00    -0.076 NA  
ATOM     5   N5  UNL     1       1.244   2.106   0.270  1.00  0.00    -0.132 NA  
ATOM     6   H20 UNL     1       1.665   0.208  -2.399  1.00  0.00     0.083 HD  
ENDROOT
BRANCH   1   7
ATOM     7   C5  UNL     1       2.319  -0.095   0.640  1.00  0.00     0.114 C   
BRANCH   7   8
ATOM     8   C4  UNL     1       3.152  -1.183  -0.061  1.00  0.00     0.064 C   
BRANCH   8   9
ATOM     9   C2  UNL     1       4.465  -0.686  -0.706  1.00  0.00    -0.012 C   
ATOM     10  C1  UNL     1       5.428  -0.087   0.321  1.00  0.00     0.007 C   
ATOM     11  C3  UNL     1       5.148  -1.844  -1.439  1.00  0.00     0.007 C   
ENDBRANCH   8   9
ENDBRANCH   7   8
BRANCH   7  12
ATOM     12  N1  UNL     1       1.147  -0.788   1.313  1.00  0.00     0.249 N   
ATOM     13  H11 UNL     1       1.361  -1.760   1.552  1.00  0.00     0.199 HD  
ATOM     14  H12 UNL     1       0.374  -0.849   0.620  1.00  0.00     0.199 HD  
BRANCH  12  15
ATOM     15  C6  UNL     1       0.611  -0.096   2.523  1.00  0.00     0.164 C   
BRANCH  15  16
ATOM     16  C7  UNL     1      -0.885  -0.216   2.610  1.00  0.00    -0.002 A   
ATOM     17  C8  UNL     1      -1.703   0.850   2.163  1.00  0.00     0.012 A   
ATOM     18  C12 UNL     1      -1.482  -1.401   3.071  1.00  0.00     0.045 A   
ATOM     19  C9  UNL     1      -3.098   0.746   2.183  1.00  0.00     0.037 A   
ATOM     20  C11 UNL     1      -2.860  -1.473   3.073  1.00  0.00     0.109 A   
ATOM     21  C10 UNL     1      -3.645  -0.432   2.640  1.00  0.00     0.108 A   
ATOM     22  O1  UNL     1      -3.594  -2.543   3.478  1.00  0.00    -0.316 OA  
ATOM     23  O2  UNL     1      -4.972  -0.716   2.716  1.00  0.00    -0.316 OA  
ATOM     24  C13 UNL     1      -4.937  -2.041   3.289  1.00  0.00     0.337 C   
ENDBRANCH  15  16
ENDBRANCH  12  15
ENDBRANCH   7  12
ENDBRANCH   1   7
BRANCH   3  25
ATOM     25  C16 UNL     1      -0.346   2.165  -2.863  1.00  0.00     0.171 C   
BRANCH  25  26
ATOM     26  C17 UNL     1      -1.764   1.882  -2.398  1.00  0.00     0.000 A   
ATOM     27  C18 UNL     1      -2.706   2.924  -2.439  1.00  0.00     0.007 A   
ATOM     28  C22 UNL     1      -2.210   0.636  -1.902  1.00  0.00     0.122 A   
ATOM     29  C19 UNL     1      -4.020   2.727  -1.998  1.00  0.00     0.000 A   
ATOM     30  C21 UNL     1      -3.522   0.430  -1.455  1.00  0.00     0.031 A   
ATOM     31  C20 UNL     1      -4.426   1.486  -1.507  1.00  0.00     0.002 A   
BRANCH  28  32
ATOM     32  N3  UNL     1      -1.310  -0.500  -1.830  1.00  0.00     0.092 N   
ATOM     33  O3  UNL     1      -0.883  -0.951  -2.899  1.00  0.00    -0.138 OA  
ATOM     34  O4  UNL     1      -0.957  -0.889  -0.701  1.00  0.00    -0.138 OA  
ENDBRANCH  28  32
ENDBRANCH  25  26
ENDBRANCH   3  25
TORSDOF 9
