REMARK SMILES CC(C)Cn1ccc(Cn2cc([C@@H]([NH2+]Cc3ccc4c(c3)OCO4)C3CCCC3)nn2)n1
REMARK SMILES IDX 10 1 11 2 12 3 30 4 31 5 9 7 8 8 5 9 6 10 32 11 7 12 4 13
REMARK SMILES IDX 2 14 1 15 3 16 13 17 14 18 15 21 16 22 17 23 21 24 18 25
REMARK SMILES IDX 20 26 19 27 22 28 24 29 23 30 25 31 26 32 29 33 27 34 28 35
REMARK H PARENT 11 6 14 19 14 20
ROOT
ATOM     1   N2  UNL     1      -1.206   2.061  -1.741  1.00  0.00    -0.206 N   
ATOM     2   C9  UNL     1      -1.630   1.392  -0.623  1.00  0.00     0.046 A   
ATOM     3   C10 UNL     1      -0.594   1.552   0.269  1.00  0.00     0.127 A   
ATOM     4   N4  UNL     1       0.381   2.330  -0.302  1.00  0.00    -0.132 NA  
ATOM     5   N5  UNL     1      -0.009   2.647  -1.525  1.00  0.00    -0.076 NA  
ATOM     6   H14 UNL     1      -2.554   0.829  -0.607  1.00  0.00     0.083 HD  
ENDROOT
BRANCH   1   7
ATOM     7   C8  UNL     1      -1.835   2.106  -3.048  1.00  0.00     0.191 C   
BRANCH   7   8
ATOM     8   C7  UNL     1      -1.298   1.003  -3.895  1.00  0.00     0.079 A   
ATOM     9   N1  UNL     1      -0.978  -0.969  -4.615  1.00  0.00    -0.232 N   
ATOM     10  C5  UNL     1      -0.211  -0.177  -5.419  1.00  0.00     0.097 A   
ATOM     11  N6  UNL     1      -1.656  -0.275  -3.677  1.00  0.00    -0.185 NA  
ATOM     12  C6  UNL     1      -0.390   1.110  -4.974  1.00  0.00     0.044 A   
BRANCH   9  13
ATOM     13  C4  UNL     1      -1.130  -2.409  -4.718  1.00  0.00     0.135 C   
BRANCH  13  14
ATOM     14  C2  UNL     1      -0.305  -3.235  -3.712  1.00  0.00     0.002 C   
ATOM     15  C1  UNL     1       1.188  -2.913  -3.767  1.00  0.00     0.009 C   
ATOM     16  C3  UNL     1      -0.827  -3.104  -2.280  1.00  0.00     0.009 C   
ENDBRANCH  13  14
ENDBRANCH   9  13
ENDBRANCH   7   8
ENDBRANCH   1   7
BRANCH   3  17
ATOM     17  C11 UNL     1      -0.336   0.920   1.597  1.00  0.00     0.117 C   
BRANCH  17  18
ATOM     18  N3  UNL     1       1.011   0.238   1.541  1.00  0.00     0.249 N   
ATOM     19  H16 UNL     1       1.373   0.016   2.473  1.00  0.00     0.199 HD  
ATOM     20  H17 UNL     1       1.666   0.924   1.135  1.00  0.00     0.199 HD  
BRANCH  18  21
ATOM     21  C12 UNL     1       1.057  -0.985   0.691  1.00  0.00     0.164 C   
BRANCH  21  22
ATOM     22  C13 UNL     1       2.474  -1.421   0.450  1.00  0.00    -0.002 A   
ATOM     23  C14 UNL     1       3.215  -0.846  -0.613  1.00  0.00     0.012 A   
ATOM     24  C18 UNL     1       3.082  -2.372   1.285  1.00  0.00     0.045 A   
ATOM     25  C15 UNL     1       4.540  -1.224  -0.853  1.00  0.00     0.037 A   
ATOM     26  C17 UNL     1       4.391  -2.723   1.020  1.00  0.00     0.109 A   
ATOM     27  C16 UNL     1       5.100  -2.167  -0.018  1.00  0.00     0.108 A   
ATOM     28  O1  UNL     1       5.120  -3.633   1.716  1.00  0.00    -0.316 OA  
ATOM     29  O2  UNL     1       6.364  -2.657  -0.106  1.00  0.00    -0.316 OA  
ATOM     30  C19 UNL     1       6.372  -3.597   0.990  1.00  0.00     0.337 C   
ENDBRANCH  21  22
ENDBRANCH  18  21
ENDBRANCH  17  18
BRANCH  17  31
ATOM     31  C20 UNL     1      -0.322   1.948   2.742  1.00  0.00     0.043 C   
ATOM     32  C21 UNL     1      -0.110   1.336   4.134  1.00  0.00     0.010 C   
ATOM     33  C24 UNL     1      -1.652   2.689   2.910  1.00  0.00     0.010 C   
ATOM     34  C22 UNL     1      -0.767   2.301   5.123  1.00  0.00     0.001 C   
ATOM     35  C23 UNL     1      -1.517   3.330   4.282  1.00  0.00     0.001 C   
ENDBRANCH  17  31
ENDBRANCH   3  17
TORSDOF 9
