REMARK SMILES Oc1ccc(CCn2cc([C@@H]([NH2+]Cc3ccc4c(c3)OCO4)C3CCCC3)nn2)c(O)c1
REMARK SMILES IDX 8 1 9 2 10 3 28 4 29 5 7 7 6 8 5 9 2 10 3 11 32 12 4 13
REMARK SMILES IDX 30 14 1 15 31 17 11 19 12 20 13 23 14 24 15 25 19 26 16 27
REMARK SMILES IDX 18 28 17 29 20 30 22 31 21 32 23 33 24 34 27 35 25 36 26 37
REMARK H PARENT 9 6 1 16 31 18 12 21 12 22
ROOT
ATOM     1   N1  UNL     1      -3.026   0.526   1.290  1.00  0.00    -0.212 N   
ATOM     2   C7  UNL     1      -2.159   0.801   0.272  1.00  0.00     0.045 A   
ATOM     3   C8  UNL     1      -2.126  -0.365  -0.458  1.00  0.00     0.127 A   
ATOM     4   N3  UNL     1      -2.962  -1.285   0.121  1.00  0.00    -0.132 NA  
ATOM     5   N4  UNL     1      -3.509  -0.727   1.189  1.00  0.00    -0.076 NA  
ATOM     6   H8  UNL     1      -1.647   1.750   0.190  1.00  0.00     0.083 HD  
ENDROOT
BRANCH   1   7
ATOM     7   C6  UNL     1      -3.398   1.381   2.396  1.00  0.00     0.139 C   
BRANCH   7   8
ATOM     8   C5  UNL     1      -2.853   0.903   3.743  1.00  0.00     0.059 C   
BRANCH   8   9
ATOM     9   C4  UNL     1      -1.360   0.655   3.793  1.00  0.00    -0.016 A   
ATOM     10  C1  UNL     1       1.387   0.146   3.968  1.00  0.00     0.074 A   
ATOM     11  C2  UNL     1       0.485  -0.872   4.248  1.00  0.00     0.033 A   
ATOM     12  C24 UNL     1       0.945   1.412   3.603  1.00  0.00     0.066 A   
ATOM     13  C3  UNL     1      -0.886  -0.617   4.159  1.00  0.00     0.009 A   
ATOM     14  C23 UNL     1      -0.425   1.661   3.527  1.00  0.00     0.077 A   
BRANCH  10  15
ATOM     15  O1  UNL     1       2.732  -0.059   4.035  1.00  0.00    -0.361 OA  
ATOM     16  H1  UNL     1       2.903  -0.895   4.502  1.00  0.00     0.218 HD  
ENDBRANCH  10  15
BRANCH  14  17
ATOM     17  O4  UNL     1      -0.870   2.905   3.183  1.00  0.00    -0.361 OA  
ATOM     18  H28 UNL     1      -0.131   3.532   3.281  1.00  0.00     0.218 HD  
ENDBRANCH  14  17
ENDBRANCH   8   9
ENDBRANCH   7   8
ENDBRANCH   1   7
BRANCH   3  19
ATOM     19  C9  UNL     1      -1.302  -0.756  -1.638  1.00  0.00     0.117 C   
BRANCH  19  20
ATOM     20  N2  UNL     1      -0.701  -2.127  -1.405  1.00  0.00     0.249 N   
ATOM     21  H10 UNL     1      -0.250  -2.470  -2.256  1.00  0.00     0.199 HD  
ATOM     22  H11 UNL     1      -1.492  -2.753  -1.197  1.00  0.00     0.199 HD  
BRANCH  20  23
ATOM     23  C10 UNL     1       0.265  -2.240  -0.270  1.00  0.00     0.164 C   
BRANCH  23  24
ATOM     24  C11 UNL     1       1.526  -1.454  -0.495  1.00  0.00    -0.002 A   
ATOM     25  C12 UNL     1       2.526  -1.930  -1.376  1.00  0.00     0.012 A   
ATOM     26  C16 UNL     1       1.701  -0.214   0.144  1.00  0.00     0.045 A   
ATOM     27  C13 UNL     1       3.684  -1.183  -1.616  1.00  0.00     0.037 A   
ATOM     28  C15 UNL     1       2.852   0.499  -0.117  1.00  0.00     0.109 A   
ATOM     29  C14 UNL     1       3.817   0.027  -0.971  1.00  0.00     0.108 A   
ATOM     30  O2  UNL     1       3.166   1.714   0.404  1.00  0.00    -0.316 OA  
ATOM     31  O3  UNL     1       4.867   0.880  -1.088  1.00  0.00    -0.316 OA  
ATOM     32  C17 UNL     1       4.473   1.927  -0.175  1.00  0.00     0.337 C   
ENDBRANCH  23  24
ENDBRANCH  20  23
ENDBRANCH  19  20
BRANCH  19  33
ATOM     33  C18 UNL     1      -2.137  -0.806  -2.933  1.00  0.00     0.043 C   
ATOM     34  C19 UNL     1      -1.336  -1.181  -4.186  1.00  0.00     0.010 C   
ATOM     35  C22 UNL     1      -2.722   0.554  -3.329  1.00  0.00     0.010 C   
ATOM     36  C20 UNL     1      -2.140  -0.632  -5.363  1.00  0.00     0.001 C   
ATOM     37  C21 UNL     1      -3.148   0.351  -4.775  1.00  0.00     0.001 C   
ENDBRANCH  19  33
ENDBRANCH   3  19
TORSDOF 10
