REMARK SMILES CC(F)(F)c1cccc(Cn2cc([C@@H]([NH2+]Cc3ccc4c(c3)OCO4)C(C)(C)C)nn2)n1
REMARK SMILES IDX 11 1 12 2 13 3 30 4 31 5 10 7 9 8 5 9 6 10 32 11 7 12 8 13
REMARK SMILES IDX 2 14 1 15 3 16 4 17 14 18 15 19 16 22 17 23 18 24 22 25
REMARK SMILES IDX 19 26 21 27 20 28 23 29 25 30 24 31 26 32 27 33 28 34 29 35
REMARK H PARENT 12 6 15 20 15 21
ROOT
ATOM     1   N1  UNL     1       1.477   1.265  -1.941  1.00  0.00    -0.206 N   
ATOM     2   C9  UNL     1       0.928   1.675  -0.757  1.00  0.00     0.046 A   
ATOM     3   C10 UNL     1       1.524   0.869   0.185  1.00  0.00     0.127 A   
ATOM     4   N3  UNL     1       2.418   0.034  -0.439  1.00  0.00    -0.132 NA  
ATOM     5   N4  UNL     1       2.384   0.288  -1.737  1.00  0.00    -0.076 NA  
ATOM     6   H9  UNL     1       0.155   2.431  -0.713  1.00  0.00     0.083 HD  
ENDROOT
BRANCH   1   7
ATOM     7   C8  UNL     1       1.147   1.711  -3.282  1.00  0.00     0.190 C   
BRANCH   7   8
ATOM     8   C7  UNL     1      -0.092   1.003  -3.762  1.00  0.00     0.060 A   
ATOM     9   C3  UNL     1      -2.393   0.647  -3.502  1.00  0.00     0.109 A   
ATOM     10  C4  UNL     1      -2.391  -0.297  -4.526  1.00  0.00     0.030 A   
ATOM     11  N5  UNL     1      -1.257   1.302  -3.127  1.00  0.00    -0.250 NA  
ATOM     12  C5  UNL     1      -1.195  -0.585  -5.175  1.00  0.00     0.004 A   
ATOM     13  C6  UNL     1      -0.028   0.067  -4.789  1.00  0.00     0.025 A   
BRANCH   9  14
ATOM     14  C2  UNL     1      -3.681   0.959  -2.751  1.00  0.00     0.286 C   
ATOM     15  C1  UNL     1      -4.205   2.339  -3.108  1.00  0.00     0.094 C   
ATOM     16  F1  UNL     1      -3.499   0.917  -1.394  1.00  0.00    -0.200 F   
ATOM     17  F2  UNL     1      -4.674   0.055  -3.001  1.00  0.00    -0.200 F   
ENDBRANCH   9  14
ENDBRANCH   7   8
ENDBRANCH   1   7
BRANCH   3  18
ATOM     18  C11 UNL     1       1.260   0.712   1.651  1.00  0.00     0.120 C   
BRANCH  18  19
ATOM     19  N2  UNL     1       1.316  -0.758   1.994  1.00  0.00     0.250 N   
ATOM     20  H11 UNL     1       2.166  -1.133   1.547  1.00  0.00     0.199 HD  
ATOM     21  H12 UNL     1       1.420  -0.923   2.997  1.00  0.00     0.199 HD  
BRANCH  19  22
ATOM     22  C12 UNL     1       0.168  -1.570   1.495  1.00  0.00     0.164 C   
BRANCH  22  23
ATOM     23  C13 UNL     1       0.361  -3.016   1.856  1.00  0.00    -0.002 A   
ATOM     24  C14 UNL     1       1.131  -3.859   1.018  1.00  0.00     0.012 A   
ATOM     25  C18 UNL     1      -0.167  -3.524   3.054  1.00  0.00     0.045 A   
ATOM     26  C15 UNL     1       1.363  -5.195   1.363  1.00  0.00     0.037 A   
ATOM     27  C17 UNL     1       0.082  -4.845   3.364  1.00  0.00     0.109 A   
ATOM     28  C16 UNL     1       0.825  -5.657   2.543  1.00  0.00     0.108 A   
ATOM     29  O1  UNL     1      -0.352  -5.489   4.479  1.00  0.00    -0.316 OA  
ATOM     30  O2  UNL     1       0.950  -6.916   3.036  1.00  0.00    -0.316 OA  
ATOM     31  C19 UNL     1       0.186  -6.813   4.256  1.00  0.00     0.337 C   
ENDBRANCH  22  23
ENDBRANCH  19  22
ENDBRANCH  18  19
BRANCH  18  32
ATOM     32  C20 UNL     1       2.231   1.528   2.573  1.00  0.00     0.010 C   
ATOM     33  C21 UNL     1       3.692   1.047   2.477  1.00  0.00     0.017 C   
ATOM     34  C22 UNL     1       2.187   3.027   2.195  1.00  0.00     0.017 C   
ATOM     35  C23 UNL     1       1.783   1.425   4.050  1.00  0.00     0.017 C   
ENDBRANCH  18  32
ENDBRANCH   3  18
TORSDOF 8
