REMARK SMILES O[C@@H](Cc1cccc(F)c1)Cn1cc([C@@H]([NH2+]Cc2ccc3c(c2)OCO3)C2CCCCC2)nn1
REMARK SMILES IDX 12 1 13 2 14 3 33 4 34 5 11 7 2 8 1 9 3 11 4 12 5 13 10 14
REMARK SMILES IDX 6 15 8 16 7 17 9 18 15 19 16 20 17 23 18 24 19 25 23 26
REMARK SMILES IDX 20 27 22 28 21 29 24 30 26 31 25 32 27 33 28 34 32 35 29 36
REMARK SMILES IDX 31 37 30 38
REMARK H PARENT 13 6 1 10 16 21 16 22
ROOT
ATOM     1   N1  UNL     1       2.703  -1.425  -0.460  1.00  0.00    -0.210 N   
ATOM     2   C10 UNL     1       1.365  -1.708  -0.474  1.00  0.00     0.045 A   
ATOM     3   C11 UNL     1       0.792  -0.594  -1.050  1.00  0.00     0.127 A   
ATOM     4   N3  UNL     1       1.783   0.280  -1.406  1.00  0.00    -0.132 NA  
ATOM     5   N4  UNL     1       2.945  -0.238  -1.044  1.00  0.00    -0.076 NA  
ATOM     6   H11 UNL     1       0.962  -2.628  -0.073  1.00  0.00     0.083 HD  
ENDROOT
BRANCH   1   7
ATOM     7   C9  UNL     1       3.782  -2.221   0.079  1.00  0.00     0.166 C   
BRANCH   7   8
ATOM     8   C1  UNL     1       3.674  -2.492   1.589  1.00  0.00     0.138 C   
BRANCH   8   9
ATOM     9   O1  UNL     1       4.456  -3.663   1.868  1.00  0.00    -0.391 OA  
ATOM     10  H1  UNL     1       4.422  -3.843   2.825  1.00  0.00     0.211 HD  
ENDBRANCH   8   9
BRANCH   8  11
ATOM     11  C2  UNL     1       4.182  -1.339   2.478  1.00  0.00     0.069 C   
BRANCH  11  12
ATOM     12  C3  UNL     1       3.425  -0.037   2.391  1.00  0.00    -0.042 A   
ATOM     13  C4  UNL     1       4.134   1.168   2.255  1.00  0.00     0.004 A   
ATOM     14  C8  UNL     1       2.027   0.016   2.462  1.00  0.00     0.043 A   
ATOM     15  C5  UNL     1       3.462   2.389   2.156  1.00  0.00     0.003 A   
ATOM     16  C7  UNL     1       1.367   1.233   2.312  1.00  0.00     0.123 A   
ATOM     17  C6  UNL     1       2.071   2.422   2.175  1.00  0.00     0.039 A   
ATOM     18  F1  UNL     1       0.027   1.245   2.233  1.00  0.00    -0.207 F   
ENDBRANCH  11  12
ENDBRANCH   8  11
ENDBRANCH   7   8
ENDBRANCH   1   7
BRANCH   3  19
ATOM     19  C12 UNL     1      -0.647  -0.254  -1.282  1.00  0.00     0.117 C   
BRANCH  19  20
ATOM     20  N2  UNL     1      -1.024   1.051  -0.622  1.00  0.00     0.249 N   
ATOM     21  H13 UNL     1      -2.041   1.180  -0.661  1.00  0.00     0.199 HD  
ATOM     22  H14 UNL     1      -0.803   0.973   0.381  1.00  0.00     0.199 HD  
BRANCH  20  23
ATOM     23  C13 UNL     1      -0.359   2.303  -1.097  1.00  0.00     0.164 C   
BRANCH  23  24
ATOM     24  C14 UNL     1      -1.220   3.504  -0.800  1.00  0.00    -0.002 A   
ATOM     25  C15 UNL     1      -1.881   4.183  -1.852  1.00  0.00     0.012 A   
ATOM     26  C19 UNL     1      -1.405   3.939   0.523  1.00  0.00     0.045 A   
ATOM     27  C16 UNL     1      -2.709   5.280  -1.593  1.00  0.00     0.037 A   
ATOM     28  C18 UNL     1      -2.228   5.024   0.744  1.00  0.00     0.109 A   
ATOM     29  C17 UNL     1      -2.862   5.676  -0.284  1.00  0.00     0.108 A   
ATOM     30  O2  UNL     1      -2.512   5.565   1.957  1.00  0.00    -0.316 OA  
ATOM     31  O3  UNL     1      -3.625   6.712   0.152  1.00  0.00    -0.316 OA  
ATOM     32  C20 UNL     1      -3.382   6.655   1.574  1.00  0.00     0.337 C   
ENDBRANCH  23  24
ENDBRANCH  20  23
ENDBRANCH  19  20
BRANCH  19  33
ATOM     33  C21 UNL     1      -1.052  -0.285  -2.789  1.00  0.00     0.043 C   
ATOM     34  C22 UNL     1      -0.846  -1.683  -3.420  1.00  0.00     0.010 C   
ATOM     35  C26 UNL     1      -2.505   0.153  -3.066  1.00  0.00     0.010 C   
ATOM     36  C23 UNL     1      -1.858  -2.716  -2.925  1.00  0.00     0.001 C   
ATOM     37  C25 UNL     1      -3.532  -0.852  -2.547  1.00  0.00     0.001 C   
ATOM     38  C24 UNL     1      -3.294  -2.243  -3.128  1.00  0.00     0.000 C   
ENDBRANCH  19  33
ENDBRANCH   3  19
TORSDOF 10
