REMARK SMILES CCc1n[nH]c(C(C)C)c1Cn1cc([C@@H]([NH2+]Cc2ccc3c(c2)OCO3)C2CCCC2)nn1
REMARK SMILES IDX 12 1 13 2 14 3 32 4 33 5 11 7 10 8 3 9 4 10 5 11 6 12 2 14
REMARK SMILES IDX 1 15 7 16 8 17 9 18 15 19 16 20 17 23 18 24 19 25 23 26
REMARK SMILES IDX 20 27 22 28 21 29 24 30 26 31 25 32 27 33 28 34 31 35 29 36
REMARK SMILES IDX 30 37
REMARK H PARENT 13 6 5 13 16 21 16 22
ROOT
ATOM     1   N3  UNL     1       2.015   1.716   0.294  1.00  0.00    -0.208 N   
ATOM     2   C10 UNL     1       0.886   1.256  -0.331  1.00  0.00     0.046 A   
ATOM     3   C11 UNL     1      -0.131   1.599   0.530  1.00  0.00     0.127 A   
ATOM     4   N5  UNL     1       0.389   2.289   1.594  1.00  0.00    -0.132 NA  
ATOM     5   N6  UNL     1       1.701   2.354   1.439  1.00  0.00    -0.076 NA  
ATOM     6   H16 UNL     1       0.920   0.700  -1.258  1.00  0.00     0.083 HD  
ENDROOT
BRANCH   1   7
ATOM     7   C9  UNL     1       3.402   1.498  -0.086  1.00  0.00     0.173 C   
BRANCH   7   8
ATOM     8   C8  UNL     1       3.716   0.038  -0.062  1.00  0.00     0.013 A   
ATOM     9   C3  UNL     1       3.994  -0.763   1.084  1.00  0.00     0.065 A   
ATOM     10  N1  UNL     1       4.191  -2.042   0.754  1.00  0.00    -0.189 NA  
ATOM     11  N2  UNL     1       4.147  -2.055  -0.582  1.00  0.00    -0.242 N   
ATOM     12  C4  UNL     1       3.808  -0.844  -1.130  1.00  0.00     0.034 A   
ATOM     13  H6  UNL     1       4.346  -2.930  -1.060  1.00  0.00     0.175 HD  
BRANCH   9  14
ATOM     14  C2  UNL     1       4.079  -0.355   2.519  1.00  0.00     0.055 C   
ATOM     15  C1  UNL     1       5.460   0.168   2.890  1.00  0.00     0.011 C   
ENDBRANCH   9  14
BRANCH  12  16
ATOM     16  C5  UNL     1       3.645  -0.650  -2.610  1.00  0.00     0.029 C   
ATOM     17  C6  UNL     1       4.994  -0.710  -3.325  1.00  0.00     0.014 C   
ATOM     18  C7  UNL     1       2.657  -1.653  -3.208  1.00  0.00     0.014 C   
ENDBRANCH  12  16
ENDBRANCH   7   8
ENDBRANCH   1   7
BRANCH   3  19
ATOM     19  C12 UNL     1      -1.580   1.248   0.511  1.00  0.00     0.117 C   
BRANCH  19  20
ATOM     20  N4  UNL     1      -2.011   0.767   1.883  1.00  0.00     0.249 N   
ATOM     21  H18 UNL     1      -1.795   1.530   2.540  1.00  0.00     0.199 HD  
ATOM     22  H19 UNL     1      -3.024   0.622   1.905  1.00  0.00     0.199 HD  
BRANCH  20  23
ATOM     23  C13 UNL     1      -1.335  -0.466   2.402  1.00  0.00     0.164 C   
BRANCH  23  24
ATOM     24  C14 UNL     1      -1.513  -1.661   1.508  1.00  0.00    -0.002 A   
ATOM     25  C15 UNL     1      -0.405  -2.201   0.807  1.00  0.00     0.012 A   
ATOM     26  C19 UNL     1      -2.787  -2.231   1.332  1.00  0.00     0.045 A   
ATOM     27  C16 UNL     1      -0.565  -3.280  -0.071  1.00  0.00     0.037 A   
ATOM     28  C18 UNL     1      -2.909  -3.292   0.458  1.00  0.00     0.109 A   
ATOM     29  C17 UNL     1      -1.832  -3.799  -0.228  1.00  0.00     0.108 A   
ATOM     30  O1  UNL     1      -4.066  -3.944   0.170  1.00  0.00    -0.316 OA  
ATOM     31  O2  UNL     1      -2.178  -4.833  -1.040  1.00  0.00    -0.316 OA  
ATOM     32  C20 UNL     1      -3.594  -4.932  -0.777  1.00  0.00     0.337 C   
ENDBRANCH  23  24
ENDBRANCH  20  23
ENDBRANCH  19  20
BRANCH  19  33
ATOM     33  C21 UNL     1      -2.469   2.443   0.119  1.00  0.00     0.043 C   
ATOM     34  C22 UNL     1      -2.180   2.989  -1.284  1.00  0.00     0.010 C   
ATOM     35  C25 UNL     1      -3.967   2.110   0.041  1.00  0.00     0.010 C   
ATOM     36  C23 UNL     1      -3.395   3.856  -1.569  1.00  0.00     0.001 C   
ATOM     37  C24 UNL     1      -4.569   3.081  -0.977  1.00  0.00     0.001 C   
ENDBRANCH  19  33
ENDBRANCH   3  19
TORSDOF 9
