REMARK SMILES CC(C)[C@H]([NH2+]Cc1ccc2c(c1)OCO2)c1cn(Cc2ccc(N)c(N)c2)nn1
REMARK SMILES IDX 16 1 17 2 18 3 28 4 29 5 4 7 2 8 1 9 3 10 5 11 6 14 7 15
REMARK SMILES IDX 8 16 12 17 9 18 11 19 10 20 13 21 15 22 14 23 19 24 20 25
REMARK SMILES IDX 21 26 27 27 22 28 25 29 23 30 26 31 24 34
REMARK H PARENT 17 6 5 12 5 13 26 32 26 33 24 35 24 36
ROOT
ATOM     1   C13 UNL     1      -0.928   1.505  -1.742  1.00  0.00     0.127 A   
ATOM     2   C14 UNL     1       0.404   1.230  -1.956  1.00  0.00     0.046 A   
ATOM     3   N2  UNL     1       1.057   2.253  -1.325  1.00  0.00    -0.208 N   
ATOM     4   N5  UNL     1       0.180   3.138  -0.812  1.00  0.00    -0.076 NA  
ATOM     5   N6  UNL     1      -1.040   2.689  -1.061  1.00  0.00    -0.132 NA  
ATOM     6   H18 UNL     1       0.927   0.398  -2.408  1.00  0.00     0.083 HD  
ENDROOT
BRANCH   1   7
ATOM     7   C4  UNL     1      -2.141   0.679  -2.009  1.00  0.00     0.117 C   
BRANCH   7   8
ATOM     8   C2  UNL     1      -2.937   1.095  -3.273  1.00  0.00     0.037 C   
ATOM     9   C1  UNL     1      -2.113   0.877  -4.548  1.00  0.00     0.014 C   
ATOM     10  C3  UNL     1      -3.473   2.531  -3.248  1.00  0.00     0.014 C   
ENDBRANCH   7   8
BRANCH   7  11
ATOM     11  N1  UNL     1      -3.077   0.701  -0.816  1.00  0.00     0.249 N   
ATOM     12  H9  UNL     1      -3.937   0.194  -1.042  1.00  0.00     0.199 HD  
ATOM     13  H10 UNL     1      -3.328   1.684  -0.655  1.00  0.00     0.199 HD  
BRANCH  11  14
ATOM     14  C5  UNL     1      -2.526   0.191   0.481  1.00  0.00     0.164 C   
BRANCH  14  15
ATOM     15  C6  UNL     1      -1.975  -1.205   0.407  1.00  0.00    -0.002 A   
ATOM     16  C7  UNL     1      -0.584  -1.425   0.561  1.00  0.00     0.012 A   
ATOM     17  C11 UNL     1      -2.824  -2.297   0.164  1.00  0.00     0.045 A   
ATOM     18  C8  UNL     1      -0.041  -2.711   0.460  1.00  0.00     0.037 A   
ATOM     19  C10 UNL     1      -2.256  -3.551   0.070  1.00  0.00     0.109 A   
ATOM     20  C9  UNL     1      -0.905  -3.753   0.212  1.00  0.00     0.108 A   
ATOM     21  O1  UNL     1      -2.932  -4.706  -0.169  1.00  0.00    -0.316 OA  
ATOM     22  O2  UNL     1      -0.560  -5.060   0.080  1.00  0.00    -0.316 OA  
ATOM     23  C12 UNL     1      -1.852  -5.668  -0.131  1.00  0.00     0.337 C   
ENDBRANCH  14  15
ENDBRANCH  11  14
ENDBRANCH   7  11
ENDBRANCH   1   7
BRANCH   3  24
ATOM     24  C15 UNL     1       2.480   2.367  -1.053  1.00  0.00     0.169 C   
BRANCH  24  25
ATOM     25  C16 UNL     1       2.852   1.464   0.098  1.00  0.00    -0.027 A   
ATOM     26  C17 UNL     1       2.717   1.908   1.420  1.00  0.00     0.007 A   
ATOM     27  C21 UNL     1       3.279   0.147  -0.134  1.00  0.00     0.030 A   
ATOM     28  C18 UNL     1       2.956   1.040   2.487  1.00  0.00     0.025 A   
ATOM     29  C20 UNL     1       3.575  -0.708   0.932  1.00  0.00     0.045 A   
ATOM     30  C19 UNL     1       3.300  -0.293   2.251  1.00  0.00     0.044 A   
BRANCH  29  31
ATOM     31  N4  UNL     1       3.938  -2.050   0.679  1.00  0.00    -0.357 N   
ATOM     32  H25 UNL     1       4.513  -2.392   1.450  1.00  0.00     0.143 HD  
ATOM     33  H26 UNL     1       4.442  -2.159  -0.197  1.00  0.00     0.143 HD  
ENDBRANCH  29  31
BRANCH  30  34
ATOM     34  N3  UNL     1       3.568  -1.156   3.331  1.00  0.00    -0.357 N   
ATOM     35  H23 UNL     1       3.112  -0.883   4.197  1.00  0.00     0.143 HD  
ATOM     36  H24 UNL     1       3.364  -2.123   3.091  1.00  0.00     0.143 HD  
ENDBRANCH  30  34
ENDBRANCH  24  25
ENDBRANCH   3  24
TORSDOF 9
