REMARK SMILES CC(C)[C@H]([NH2+]Cc1ccc2c(c1)OCO2)c1cn(Cc2ccc(N([O-])[O-])c(F)c2)nn1
REMARK SMILES IDX 16 1 17 2 18 3 30 4 31 5 4 7 2 8 1 9 3 10 5 11 6 14 7 15
REMARK SMILES IDX 8 16 12 17 9 18 11 19 10 20 13 21 15 22 14 23 19 24 20 25
REMARK SMILES IDX 21 26 29 27 22 28 27 29 23 30 28 31 24 32 25 33 26 34
REMARK H PARENT 17 6 5 12 5 13
ROOT
ATOM     1   C13 UNL     1       1.060   1.065   1.100  1.00  0.00     0.127 A   
ATOM     2   C14 UNL     1       1.066   1.667  -0.139  1.00  0.00     0.046 A   
ATOM     3   N2  UNL     1       1.747   0.782  -0.930  1.00  0.00    -0.208 N   
ATOM     4   N4  UNL     1       2.155  -0.286  -0.218  1.00  0.00    -0.076 NA  
ATOM     5   N5  UNL     1       1.730  -0.130   1.025  1.00  0.00    -0.132 NA  
ATOM     6   H18 UNL     1       0.656   2.591  -0.520  1.00  0.00     0.083 HD  
ENDROOT
BRANCH   1   7
ATOM     7   C4  UNL     1       0.439   1.476   2.396  1.00  0.00     0.117 C   
BRANCH   7   8
ATOM     8   C2  UNL     1       1.388   2.360   3.247  1.00  0.00     0.037 C   
ATOM     9   C1  UNL     1       0.647   3.012   4.421  1.00  0.00     0.014 C   
ATOM     10  C3  UNL     1       2.636   1.631   3.761  1.00  0.00     0.014 C   
ENDBRANCH   7   8
BRANCH   7  11
ATOM     11  N1  UNL     1       0.007   0.256   3.176  1.00  0.00     0.249 N   
ATOM     12  H9  UNL     1       0.607  -0.519   2.848  1.00  0.00     0.199 HD  
ATOM     13  H10 UNL     1       0.212   0.362   4.173  1.00  0.00     0.199 HD  
BRANCH  11  14
ATOM     14  C5  UNL     1      -1.416  -0.157   3.020  1.00  0.00     0.164 C   
BRANCH  14  15
ATOM     15  C6  UNL     1      -1.750  -0.691   1.656  1.00  0.00    -0.002 A   
ATOM     16  C7  UNL     1      -2.432   0.113   0.711  1.00  0.00     0.012 A   
ATOM     17  C11 UNL     1      -1.368  -1.997   1.302  1.00  0.00     0.045 A   
ATOM     18  C8  UNL     1      -2.729  -0.374  -0.567  1.00  0.00     0.037 A   
ATOM     19  C10 UNL     1      -1.687  -2.451   0.040  1.00  0.00     0.109 A   
ATOM     20  C9  UNL     1      -2.345  -1.661  -0.870  1.00  0.00     0.108 A   
ATOM     21  O1  UNL     1      -1.415  -3.689  -0.447  1.00  0.00    -0.316 OA  
ATOM     22  O2  UNL     1      -2.561  -2.301  -2.048  1.00  0.00    -0.316 OA  
ATOM     23  C12 UNL     1      -2.028  -3.612  -1.754  1.00  0.00     0.337 C   
ENDBRANCH  14  15
ENDBRANCH  11  14
ENDBRANCH   7  11
ENDBRANCH   1   7
BRANCH   3  24
ATOM     24  C15 UNL     1       2.054   0.894  -2.346  1.00  0.00     0.169 C   
BRANCH  24  25
ATOM     25  C16 UNL     1       1.028   0.168  -3.183  1.00  0.00    -0.026 A   
ATOM     26  C17 UNL     1       1.261  -1.153  -3.603  1.00  0.00     0.008 A   
ATOM     27  C21 UNL     1      -0.187   0.787  -3.522  1.00  0.00     0.047 A   
ATOM     28  C18 UNL     1       0.305  -1.839  -4.357  1.00  0.00     0.035 A   
ATOM     29  C20 UNL     1      -1.148   0.100  -4.263  1.00  0.00     0.152 A   
ATOM     30  C19 UNL     1      -0.898  -1.201  -4.682  1.00  0.00     0.153 A   
ATOM     31  F1  UNL     1      -2.310   0.717  -4.515  1.00  0.00    -0.205 F   
BRANCH  30  32
ATOM     32  N3  UNL     1      -1.907  -1.922  -5.434  1.00  0.00     0.095 N   
ATOM     33  O3  UNL     1      -2.554  -1.297  -6.283  1.00  0.00    -0.138 OA  
ATOM     34  O4  UNL     1      -2.028  -3.132  -5.191  1.00  0.00    -0.138 OA  
ENDBRANCH  30  32
ENDBRANCH  24  25
ENDBRANCH   3  24
TORSDOF 8
