REMARK SMILES Cc1cc(C(=O)n2cc([C@@H]([NH2+]Cc3ccc4c(c3)OCO4)C3CCCCC3)nn2)nc(Cl)n1
REMARK SMILES IDX 7 1 8 2 9 3 28 4 29 5 5 6 6 7 4 8 2 9 3 10 33 11 31 12 30 13
REMARK SMILES IDX 1 14 32 15 10 16 11 17 12 20 13 21 14 22 18 23 15 24 17 25
REMARK SMILES IDX 16 26 19 27 21 28 20 29 22 30 23 31 27 32 24 33 26 34 25 35
REMARK H PARENT 11 18 11 19
ROOT
ATOM     1   N1  UNL     1       1.588   1.084   1.790  1.00  0.00    -0.142 N   
ATOM     2   C6  UNL     1       0.961   1.454   0.612  1.00  0.00     0.139 A   
ATOM     3   C7  UNL     1       0.144   0.395   0.283  1.00  0.00     0.128 A   
ATOM     4   N3  UNL     1       0.288  -0.586   1.219  1.00  0.00    -0.131 NA  
ATOM     5   N4  UNL     1       1.158  -0.169   2.121  1.00  0.00    -0.068 NA  
ENDROOT
BRANCH   1   6
ATOM     6   C5  UNL     1       2.515   1.746   2.622  1.00  0.00     0.289 C   
ATOM     7   O1  UNL     1       2.843   1.178   3.664  1.00  0.00    -0.268 OA  
BRANCH   6   8
ATOM     8   C4  UNL     1       3.130   3.070   2.333  1.00  0.00     0.133 A   
ATOM     9   C2  UNL     1       4.531   4.855   2.945  1.00  0.00     0.043 A   
ATOM     10  C3  UNL     1       3.942   3.657   3.290  1.00  0.00     0.057 A   
ATOM     11  N6  UNL     1       4.319   5.433   1.746  1.00  0.00    -0.223 NA  
ATOM     12  C23 UNL     1       3.511   4.781   0.907  1.00  0.00     0.223 A   
ATOM     13  N5  UNL     1       2.895   3.613   1.125  1.00  0.00    -0.213 NA  
ATOM     14  C1  UNL     1       5.406   5.586   3.921  1.00  0.00     0.067 C   
ATOM     15  CL1 UNL     1       3.231   5.501  -0.613  1.00  0.00    -0.041 Cl  
ENDBRANCH   6   8
ENDBRANCH   1   6
BRANCH   3  16
ATOM     16  C8  UNL     1      -0.796   0.188  -0.865  1.00  0.00     0.117 C   
BRANCH  16  17
ATOM     17  N2  UNL     1      -1.020  -1.280  -1.108  1.00  0.00     0.249 N   
ATOM     18  H7  UNL     1      -1.901  -1.456  -1.598  1.00  0.00     0.199 HD  
ATOM     19  H8  UNL     1      -1.115  -1.730  -0.185  1.00  0.00     0.199 HD  
BRANCH  17  20
ATOM     20  C9  UNL     1       0.074  -1.985  -1.831  1.00  0.00     0.164 C   
BRANCH  20  21
ATOM     21  C10 UNL     1      -0.298  -3.422  -2.065  1.00  0.00    -0.002 A   
ATOM     22  C11 UNL     1      -1.078  -3.780  -3.192  1.00  0.00     0.012 A   
ATOM     23  C15 UNL     1       0.073  -4.410  -1.137  1.00  0.00     0.045 A   
ATOM     24  C12 UNL     1      -1.479  -5.104  -3.396  1.00  0.00     0.037 A   
ATOM     25  C14 UNL     1      -0.336  -5.707  -1.371  1.00  0.00     0.109 A   
ATOM     26  C13 UNL     1      -1.092  -6.044  -2.466  1.00  0.00     0.108 A   
ATOM     27  O2  UNL     1      -0.065  -6.777  -0.579  1.00  0.00    -0.316 OA  
ATOM     28  O3  UNL     1      -1.393  -7.368  -2.502  1.00  0.00    -0.316 OA  
ATOM     29  C16 UNL     1      -0.709  -7.838  -1.319  1.00  0.00     0.337 C   
ENDBRANCH  20  21
ENDBRANCH  17  20
ENDBRANCH  16  17
BRANCH  16  30
ATOM     30  C17 UNL     1      -2.152   0.911  -0.641  1.00  0.00     0.043 C   
ATOM     31  C18 UNL     1      -2.971   1.005  -1.944  1.00  0.00     0.010 C   
ATOM     32  C22 UNL     1      -3.010   0.297   0.484  1.00  0.00     0.010 C   
ATOM     33  C19 UNL     1      -4.271   1.780  -1.737  1.00  0.00     0.001 C   
ATOM     34  C21 UNL     1      -4.312   1.073   0.684  1.00  0.00     0.001 C   
ATOM     35  C20 UNL     1      -5.109   1.182  -0.612  1.00  0.00     0.000 C   
ENDBRANCH  16  30
ENDBRANCH   3  16
TORSDOF 7
