REMARK SMILES CC(C)(C)[C@H]([NH2+]Cc1ccc2c(c1)OCO2)c1cn(C[C@@H](O)c2ccccc2Cl)nn1
REMARK SMILES IDX 17 1 18 2 19 3 30 4 31 5 5 7 2 8 1 9 3 10 4 11 6 12 7 15
REMARK SMILES IDX 8 16 9 17 13 18 10 19 12 20 11 21 14 22 16 23 15 24 20 25
REMARK SMILES IDX 21 26 22 27 23 29 24 30 28 31 25 32 27 33 26 34 29 35
REMARK H PARENT 18 6 6 13 6 14 22 28
ROOT
ATOM     1   C14 UNL     1       1.704  -0.770  -0.642  1.00  0.00     0.127 A   
ATOM     2   C15 UNL     1       1.882  -2.063  -1.084  1.00  0.00     0.046 A   
ATOM     3   N2  UNL     1       1.228  -2.821  -0.153  1.00  0.00    -0.209 N   
ATOM     4   N3  UNL     1       0.676  -2.047   0.798  1.00  0.00    -0.076 NA  
ATOM     5   N4  UNL     1       0.959  -0.788   0.509  1.00  0.00    -0.132 NA  
ATOM     6   H20 UNL     1       2.381  -2.497  -1.939  1.00  0.00     0.083 HD  
ENDROOT
BRANCH   1   7
ATOM     7   C5  UNL     1       2.096   0.552  -1.235  1.00  0.00     0.120 C   
BRANCH   7   8
ATOM     8   C2  UNL     1       3.489   1.087  -0.752  1.00  0.00     0.010 C   
ATOM     9   C1  UNL     1       4.594   0.050  -1.054  1.00  0.00     0.017 C   
ATOM     10  C3  UNL     1       3.863   2.377  -1.520  1.00  0.00     0.017 C   
ATOM     11  C4  UNL     1       3.516   1.397   0.758  1.00  0.00     0.017 C   
ENDBRANCH   7   8
BRANCH   7  12
ATOM     12  N1  UNL     1       1.008   1.552  -0.914  1.00  0.00     0.250 N   
ATOM     13  H11 UNL     1       1.325   2.523  -0.968  1.00  0.00     0.199 HD  
ATOM     14  H12 UNL     1       0.752   1.390   0.073  1.00  0.00     0.199 HD  
BRANCH  12  15
ATOM     15  C6  UNL     1      -0.240   1.408  -1.713  1.00  0.00     0.164 C   
BRANCH  15  16
ATOM     16  C7  UNL     1      -1.330   2.273  -1.147  1.00  0.00    -0.002 A   
ATOM     17  C8  UNL     1      -2.139   1.787  -0.091  1.00  0.00     0.012 A   
ATOM     18  C12 UNL     1      -1.518   3.582  -1.620  1.00  0.00     0.045 A   
ATOM     19  C9  UNL     1      -3.132   2.589   0.480  1.00  0.00     0.037 A   
ATOM     20  C11 UNL     1      -2.506   4.346  -1.034  1.00  0.00     0.109 A   
ATOM     21  C10 UNL     1      -3.290   3.864  -0.015  1.00  0.00     0.108 A   
ATOM     22  O1  UNL     1      -2.818   5.625  -1.370  1.00  0.00    -0.316 OA  
ATOM     23  O2  UNL     1      -4.197   4.779   0.418  1.00  0.00    -0.316 OA  
ATOM     24  C13 UNL     1      -3.910   5.889  -0.460  1.00  0.00     0.337 C   
ENDBRANCH  15  16
ENDBRANCH  12  15
ENDBRANCH   7  12
ENDBRANCH   1   7
BRANCH   3  25
ATOM     25  C16 UNL     1       1.082  -4.258  -0.111  1.00  0.00     0.170 C   
BRANCH  25  26
ATOM     26  C17 UNL     1      -0.077  -4.771  -0.974  1.00  0.00     0.165 C   
BRANCH  26  27
ATOM     27  O3  UNL     1       0.070  -6.191  -1.119  1.00  0.00    -0.387 OA  
ATOM     28  H24 UNL     1      -0.777  -6.546  -1.446  1.00  0.00     0.211 HD  
ENDBRANCH  26  27
BRANCH  26  29
ATOM     29  C18 UNL     1      -1.446  -4.451  -0.404  1.00  0.00     0.001 A   
ATOM     30  C19 UNL     1      -1.934  -5.210   0.679  1.00  0.00     0.008 A   
ATOM     31  C23 UNL     1      -2.249  -3.403  -0.889  1.00  0.00     0.046 A   
ATOM     32  C20 UNL     1      -3.183  -4.944   1.242  1.00  0.00     0.000 A   
ATOM     33  C22 UNL     1      -3.502  -3.141  -0.324  1.00  0.00     0.021 A   
ATOM     34  C21 UNL     1      -3.969  -3.912   0.739  1.00  0.00     0.002 A   
ATOM     35  CL1 UNL     1      -1.742  -2.377  -2.188  1.00  0.00    -0.084 Cl  
ENDBRANCH  26  29
ENDBRANCH  25  26
ENDBRANCH   3  25
TORSDOF 9
