REMARK SMILES CC(C)(C)[C@H]([NH2+]Cc1ccc2c(c1)OCO2)c1cn(C[C@H](O)c2ccccc2Cl)nn1
REMARK SMILES IDX 17 1 18 2 19 3 30 4 31 5 5 7 2 8 1 9 3 10 4 11 6 12 7 15
REMARK SMILES IDX 8 16 9 17 13 18 10 19 12 20 11 21 14 22 16 23 15 24 20 25
REMARK SMILES IDX 21 26 22 27 23 29 24 30 28 31 25 32 27 33 26 34 29 35
REMARK H PARENT 18 6 6 13 6 14 22 28
ROOT
ATOM     1   C14 UNL     1       0.373   0.731  -1.141  1.00  0.00     0.127 A   
ATOM     2   C15 UNL     1       0.556   2.037  -0.738  1.00  0.00     0.046 A   
ATOM     3   N2  UNL     1      -0.544   2.688  -1.224  1.00  0.00    -0.209 N   
ATOM     4   N3  UNL     1      -1.359   1.839  -1.872  1.00  0.00    -0.076 NA  
ATOM     5   N4  UNL     1      -0.812   0.635  -1.824  1.00  0.00    -0.132 NA  
ATOM     6   H20 UNL     1       1.325   2.542  -0.171  1.00  0.00     0.083 HD  
ENDROOT
BRANCH   1   7
ATOM     7   C5  UNL     1       1.167  -0.513  -0.875  1.00  0.00     0.120 C   
BRANCH   7   8
ATOM     8   C2  UNL     1       2.159  -0.904  -2.026  1.00  0.00     0.010 C   
ATOM     9   C1  UNL     1       1.437  -1.266  -3.336  1.00  0.00     0.017 C   
ATOM     10  C3  UNL     1       3.125   0.261  -2.314  1.00  0.00     0.017 C   
ATOM     11  C4  UNL     1       3.028  -2.111  -1.606  1.00  0.00     0.017 C   
ENDBRANCH   7   8
BRANCH   7  12
ATOM     12  N1  UNL     1       0.206  -1.645  -0.604  1.00  0.00     0.250 N   
ATOM     13  H11 UNL     1       0.641  -2.566  -0.699  1.00  0.00     0.199 HD  
ATOM     14  H12 UNL     1      -0.519  -1.592  -1.335  1.00  0.00     0.199 HD  
BRANCH  12  15
ATOM     15  C6  UNL     1      -0.499  -1.582   0.707  1.00  0.00     0.164 C   
BRANCH  15  16
ATOM     16  C7  UNL     1      -1.491  -2.704   0.827  1.00  0.00    -0.002 A   
ATOM     17  C8  UNL     1      -1.154  -3.890   1.520  1.00  0.00     0.012 A   
ATOM     18  C12 UNL     1      -2.748  -2.598   0.203  1.00  0.00     0.045 A   
ATOM     19  C9  UNL     1      -2.059  -4.953   1.605  1.00  0.00     0.037 A   
ATOM     20  C11 UNL     1      -3.615  -3.664   0.306  1.00  0.00     0.109 A   
ATOM     21  C10 UNL     1      -3.282  -4.809   0.986  1.00  0.00     0.108 A   
ATOM     22  O1  UNL     1      -4.859  -3.726  -0.236  1.00  0.00    -0.316 OA  
ATOM     23  O2  UNL     1      -4.275  -5.735   0.962  1.00  0.00    -0.316 OA  
ATOM     24  C13 UNL     1      -5.286  -5.036   0.205  1.00  0.00     0.337 C   
ENDBRANCH  15  16
ENDBRANCH  12  15
ENDBRANCH   7  12
ENDBRANCH   1   7
BRANCH   3  25
ATOM     25  C16 UNL     1      -0.902   4.080  -1.079  1.00  0.00     0.170 C   
BRANCH  25  26
ATOM     26  C17 UNL     1      -2.029   4.310  -0.065  1.00  0.00     0.165 C   
BRANCH  26  27
ATOM     27  O3  UNL     1      -2.439   5.678  -0.163  1.00  0.00    -0.387 OA  
ATOM     28  H24 UNL     1      -3.094   5.840   0.539  1.00  0.00     0.211 HD  
ENDBRANCH  26  27
BRANCH  26  29
ATOM     29  C18 UNL     1      -1.597   4.034   1.365  1.00  0.00     0.001 A   
ATOM     30  C19 UNL     1      -0.769   4.966   2.020  1.00  0.00     0.008 A   
ATOM     31  C23 UNL     1      -1.964   2.874   2.069  1.00  0.00     0.046 A   
ATOM     32  C20 UNL     1      -0.337   4.755   3.330  1.00  0.00     0.000 A   
ATOM     33  C22 UNL     1      -1.531   2.667   3.383  1.00  0.00     0.021 A   
ATOM     34  C21 UNL     1      -0.718   3.607   4.012  1.00  0.00     0.002 A   
ATOM     35  CL1 UNL     1      -2.944   1.639   1.366  1.00  0.00    -0.084 Cl  
ENDBRANCH  26  29
ENDBRANCH  25  26
ENDBRANCH   3  25
TORSDOF 9
