REMARK SMILES C[C@@H](c1ccccn1)n1cc([C@@H]([NH2+]Cc2ccc3c(c2)OCO3)C2CCCCC2)nn1
REMARK SMILES IDX 12 1 11 2 9 3 10 4 31 5 30 6 2 8 1 9 3 10 4 11 8 12 5 13
REMARK SMILES IDX 7 14 6 15 13 16 14 19 15 20 16 21 20 22 17 23 19 24 18 25
REMARK SMILES IDX 21 26 23 27 22 28 24 29 25 30 29 31 26 32 28 33 27 34
REMARK H PARENT 10 7 13 17 13 18
ROOT
ATOM     1   C10 UNL     1       0.597  -1.546   0.011  1.00  0.00     0.117 C   
ENDROOT
BRANCH   1   2
ATOM     2   C9  UNL     1      -0.030  -0.337  -0.606  1.00  0.00     0.127 A   
ATOM     3   N2  UNL     1      -1.098   1.476  -1.118  1.00  0.00    -0.203 N   
ATOM     4   C8  UNL     1      -0.696   0.727  -0.044  1.00  0.00     0.046 A   
ATOM     5   N5  UNL     1      -0.730   0.882  -2.274  1.00  0.00    -0.075 NA  
ATOM     6   N4  UNL     1      -0.070  -0.225  -1.972  1.00  0.00    -0.132 NA  
ATOM     7   H9  UNL     1      -0.918   1.017   0.975  1.00  0.00     0.083 HD  
BRANCH   3   8
ATOM     8   C2  UNL     1      -1.858   2.721  -1.136  1.00  0.00     0.145 C   
ATOM     9   C1  UNL     1      -3.285   2.516  -0.625  1.00  0.00     0.038 C   
BRANCH   8  10
ATOM     10  C3  UNL     1      -1.103   3.794  -0.373  1.00  0.00     0.063 A   
ATOM     11  C4  UNL     1      -0.272   4.684  -1.056  1.00  0.00     0.026 A   
ATOM     12  N1  UNL     1      -1.238   3.826   0.980  1.00  0.00    -0.259 NA  
ATOM     13  C5  UNL     1       0.421   5.651  -0.332  1.00  0.00     0.004 A   
ATOM     14  C7  UNL     1      -0.558   4.782   1.654  1.00  0.00     0.111 A   
ATOM     15  C6  UNL     1       0.274   5.706   1.048  1.00  0.00     0.020 A   
ENDBRANCH   8  10
ENDBRANCH   3   8
ENDBRANCH   1   2
BRANCH   1  16
ATOM     16  N3  UNL     1       0.175  -2.753  -0.813  1.00  0.00     0.249 N   
ATOM     17  H11 UNL     1       0.959  -3.389  -0.975  1.00  0.00     0.199 HD  
ATOM     18  H12 UNL     1      -0.060  -2.380  -1.747  1.00  0.00     0.199 HD  
BRANCH  16  19
ATOM     19  C11 UNL     1      -0.996  -3.522  -0.307  1.00  0.00     0.164 C   
BRANCH  19  20
ATOM     20  C12 UNL     1      -2.270  -2.726  -0.254  1.00  0.00    -0.002 A   
ATOM     21  C13 UNL     1      -2.937  -2.361  -1.449  1.00  0.00     0.012 A   
ATOM     22  C17 UNL     1      -2.786  -2.299   0.981  1.00  0.00     0.045 A   
ATOM     23  C14 UNL     1      -4.095  -1.577  -1.416  1.00  0.00     0.037 A   
ATOM     24  C16 UNL     1      -3.927  -1.524   0.978  1.00  0.00     0.109 A   
ATOM     25  C15 UNL     1      -4.562  -1.171  -0.187  1.00  0.00     0.108 A   
ATOM     26  O1  UNL     1      -4.540  -1.016   2.079  1.00  0.00    -0.316 OA  
ATOM     27  O2  UNL     1      -5.658  -0.399   0.034  1.00  0.00    -0.316 OA  
ATOM     28  C18 UNL     1      -5.659  -0.327   1.476  1.00  0.00     0.337 C   
ENDBRANCH  19  20
ENDBRANCH  16  19
ENDBRANCH   1  16
BRANCH   1  29
ATOM     29  C19 UNL     1       2.150  -1.480   0.058  1.00  0.00     0.043 C   
ATOM     30  C20 UNL     1       2.649  -0.173   0.715  1.00  0.00     0.010 C   
ATOM     31  C24 UNL     1       2.741  -2.688   0.821  1.00  0.00     0.010 C   
ATOM     32  C21 UNL     1       4.172  -0.117   0.818  1.00  0.00     0.001 C   
ATOM     33  C23 UNL     1       4.264  -2.625   0.919  1.00  0.00     0.001 C   
ATOM     34  C22 UNL     1       4.732  -1.324   1.557  1.00  0.00     0.000 C   
ENDBRANCH   1  29
TORSDOF 7
