REMARK SMILES C[C@H](c1ccccn1)n1cc([C@@H]([NH2+]Cc2ccc3c(c2)OCO3)C2CCCCC2)nn1
REMARK SMILES IDX 12 1 11 2 9 3 10 4 31 5 30 6 2 8 1 9 3 10 4 11 8 12 5 13
REMARK SMILES IDX 7 14 6 15 13 16 14 19 15 20 16 21 20 22 17 23 19 24 18 25
REMARK SMILES IDX 21 26 23 27 22 28 24 29 25 30 29 31 26 32 28 33 27 34
REMARK H PARENT 10 7 13 17 13 18
ROOT
ATOM     1   C10 UNL     1       1.053   0.767  -0.308  1.00  0.00     0.117 C   
ENDROOT
BRANCH   1   2
ATOM     2   C9  UNL     1       1.404  -0.184   0.786  1.00  0.00     0.127 A   
ATOM     3   N2  UNL     1       1.583  -1.843   2.167  1.00  0.00    -0.203 N   
ATOM     4   C8  UNL     1       1.215  -1.542   0.883  1.00  0.00     0.046 A   
ATOM     5   N5  UNL     1       2.000  -0.731   2.812  1.00  0.00    -0.075 NA  
ATOM     6   N4  UNL     1       1.893   0.289   1.976  1.00  0.00    -0.132 NA  
ATOM     7   H9  UNL     1       0.815  -2.289   0.209  1.00  0.00     0.083 HD  
BRANCH   3   8
ATOM     8   C2  UNL     1       1.510  -3.120   2.869  1.00  0.00     0.145 C   
ATOM     9   C1  UNL     1       2.183  -4.253   2.092  1.00  0.00     0.038 C   
BRANCH   8  10
ATOM     10  C3  UNL     1       0.061  -3.433   3.196  1.00  0.00     0.063 A   
ATOM     11  C4  UNL     1      -0.371  -3.446   4.522  1.00  0.00     0.026 A   
ATOM     12  N1  UNL     1      -0.783  -3.692   2.159  1.00  0.00    -0.259 NA  
ATOM     13  C5  UNL     1      -1.702  -3.750   4.795  1.00  0.00     0.004 A   
ATOM     14  C7  UNL     1      -2.066  -3.999   2.459  1.00  0.00     0.111 A   
ATOM     15  C6  UNL     1      -2.567  -4.037   3.747  1.00  0.00     0.020 A   
ENDBRANCH   8  10
ENDBRANCH   3   8
ENDBRANCH   1   2
BRANCH   1  16
ATOM     16  N3  UNL     1       0.425   2.021   0.267  1.00  0.00     0.249 N   
ATOM     17  H11 UNL     1       0.301   2.719  -0.472  1.00  0.00     0.199 HD  
ATOM     18  H12 UNL     1       1.096   2.400   0.947  1.00  0.00     0.199 HD  
BRANCH  16  19
ATOM     19  C11 UNL     1      -0.867   1.840   1.000  1.00  0.00     0.164 C   
BRANCH  19  20
ATOM     20  C12 UNL     1      -1.964   1.263   0.150  1.00  0.00    -0.002 A   
ATOM     21  C13 UNL     1      -2.386  -0.075   0.346  1.00  0.00     0.012 A   
ATOM     22  C17 UNL     1      -2.557   2.033  -0.865  1.00  0.00     0.045 A   
ATOM     23  C14 UNL     1      -3.378  -0.642  -0.460  1.00  0.00     0.037 A   
ATOM     24  C16 UNL     1      -3.532   1.443  -1.641  1.00  0.00     0.109 A   
ATOM     25  C15 UNL     1      -3.931   0.143  -1.446  1.00  0.00     0.108 A   
ATOM     26  O1  UNL     1      -4.198   2.042  -2.663  1.00  0.00    -0.316 OA  
ATOM     27  O2  UNL     1      -4.898  -0.239  -2.319  1.00  0.00    -0.316 OA  
ATOM     28  C18 UNL     1      -5.085   0.977  -3.075  1.00  0.00     0.337 C   
ENDBRANCH  19  20
ENDBRANCH  16  19
ENDBRANCH   1  16
BRANCH   1  29
ATOM     29  C19 UNL     1       2.245   1.180  -1.213  1.00  0.00     0.043 C   
ATOM     30  C20 UNL     1       3.397   1.889  -0.476  1.00  0.00     0.010 C   
ATOM     31  C24 UNL     1       2.786  -0.025  -2.009  1.00  0.00     0.010 C   
ATOM     32  C21 UNL     1       4.518   2.291  -1.435  1.00  0.00     0.001 C   
ATOM     33  C23 UNL     1       3.905   0.384  -2.965  1.00  0.00     0.001 C   
ATOM     34  C22 UNL     1       5.035   1.099  -2.232  1.00  0.00     0.000 C   
ENDBRANCH   1  29
TORSDOF 7
