REMARK SMILES COc1c(Cn2cc([C@@H]([NH2+]Cc3ccc4c(c3)OCO4)C3CCCCC3)nn2)ccc(F)c1F
REMARK SMILES IDX 6 1 7 2 8 3 27 4 28 5 5 7 4 8 3 9 33 10 29 11 31 12 30 13
REMARK SMILES IDX 34 14 32 15 2 16 1 17 9 18 10 19 11 22 12 23 13 24 17 25
REMARK SMILES IDX 14 26 16 27 15 28 18 29 20 30 19 31 21 32 22 33 26 34 23 35
REMARK SMILES IDX 25 36 24 37
REMARK H PARENT 7 6 10 20 10 21
ROOT
ATOM     1   N1  UNL     1      -2.616  -0.413   0.644  1.00  0.00    -0.208 N   
ATOM     2   C5  UNL     1      -1.266  -0.624   0.607  1.00  0.00     0.046 A   
ATOM     3   C6  UNL     1      -0.813   0.268  -0.339  1.00  0.00     0.127 A   
ATOM     4   N3  UNL     1      -1.889   0.903  -0.902  1.00  0.00    -0.132 NA  
ATOM     5   N4  UNL     1      -2.987   0.466  -0.307  1.00  0.00    -0.076 NA  
ATOM     6   H6  UNL     1      -0.776  -1.325   1.268  1.00  0.00     0.083 HD  
ENDROOT
BRANCH   1   7
ATOM     7   C4  UNL     1      -3.598  -1.017   1.530  1.00  0.00     0.172 C   
BRANCH   7   8
ATOM     8   C3  UNL     1      -4.071  -0.035   2.576  1.00  0.00     0.005 A   
ATOM     9   C2  UNL     1      -3.252   0.318   3.672  1.00  0.00     0.118 A   
ATOM     10  C25 UNL     1      -3.726   1.257   4.597  1.00  0.00     0.189 A   
ATOM     11  C22 UNL     1      -5.344   0.557   2.441  1.00  0.00     0.011 A   
ATOM     12  C24 UNL     1      -4.988   1.826   4.444  1.00  0.00     0.161 A   
ATOM     13  C23 UNL     1      -5.801   1.482   3.377  1.00  0.00     0.043 A   
ATOM     14  F2  UNL     1      -2.978   1.650   5.639  1.00  0.00    -0.201 F   
ATOM     15  F1  UNL     1      -5.428   2.727   5.333  1.00  0.00    -0.204 F   
BRANCH   9  16
ATOM     16  O1  UNL     1      -2.026  -0.300   3.710  1.00  0.00    -0.346 OA  
ATOM     17  C1  UNL     1      -1.262  -0.164   4.906  1.00  0.00     0.203 C   
ENDBRANCH   9  16
ENDBRANCH   7   8
ENDBRANCH   1   7
BRANCH   3  18
ATOM     18  C7  UNL     1       0.568   0.577  -0.834  1.00  0.00     0.117 C   
BRANCH  18  19
ATOM     19  N2  UNL     1       0.440   1.268  -2.178  1.00  0.00     0.249 N   
ATOM     20  H8  UNL     1      -0.343   0.805  -2.666  1.00  0.00     0.199 HD  
ATOM     21  H9  UNL     1       0.081   2.218  -2.016  1.00  0.00     0.199 HD  
BRANCH  19  22
ATOM     22  C8  UNL     1       1.615   1.287  -3.080  1.00  0.00     0.164 C   
BRANCH  22  23
ATOM     23  C9  UNL     1       2.043  -0.086  -3.515  1.00  0.00    -0.002 A   
ATOM     24  C10 UNL     1       1.265  -0.820  -4.445  1.00  0.00     0.012 A   
ATOM     25  C14 UNL     1       3.197  -0.671  -2.968  1.00  0.00     0.045 A   
ATOM     26  C11 UNL     1       1.625  -2.120  -4.816  1.00  0.00     0.037 A   
ATOM     27  C13 UNL     1       3.522  -1.955  -3.355  1.00  0.00     0.109 A   
ATOM     28  C12 UNL     1       2.758  -2.659  -4.250  1.00  0.00     0.108 A   
ATOM     29  O2  UNL     1       4.591  -2.667  -2.913  1.00  0.00    -0.316 OA  
ATOM     30  O3  UNL     1       3.248  -3.904  -4.484  1.00  0.00    -0.316 OA  
ATOM     31  C15 UNL     1       4.434  -3.894  -3.663  1.00  0.00     0.337 C   
ENDBRANCH  22  23
ENDBRANCH  19  22
ENDBRANCH  18  19
BRANCH  18  32
ATOM     32  C16 UNL     1       1.418   1.447   0.133  1.00  0.00     0.043 C   
ATOM     33  C17 UNL     1       1.827   0.659   1.395  1.00  0.00     0.010 C   
ATOM     34  C21 UNL     1       0.750   2.780   0.534  1.00  0.00     0.010 C   
ATOM     35  C18 UNL     1       2.723   1.491   2.311  1.00  0.00     0.001 C   
ATOM     36  C20 UNL     1       1.637   3.603   1.470  1.00  0.00     0.001 C   
ATOM     37  C19 UNL     1       2.053   2.806   2.700  1.00  0.00     0.000 C   
ENDBRANCH  18  32
ENDBRANCH   3  18
TORSDOF 8
