REMARK SMILES Oc1c(Cl)cccc1Cn1cc([C@@H]([NH2+]Cc2ccc3c(c2)OCO3)C2CCCC2)nn1
REMARK SMILES IDX 10 1 11 2 12 3 30 4 31 5 9 7 8 8 2 9 3 10 5 11 7 12 6 13
REMARK SMILES IDX 4 14 1 15 13 17 14 18 15 21 16 22 17 23 21 24 18 25 20 26
REMARK SMILES IDX 19 27 22 28 24 29 23 30 25 31 26 32 29 33 27 34 28 35
REMARK H PARENT 11 6 1 16 14 19 14 20
ROOT
ATOM     1   N1  UNL     1      -0.858  -2.462  -1.098  1.00  0.00    -0.208 N   
ATOM     2   C8  UNL     1      -0.601  -1.128  -0.938  1.00  0.00     0.046 A   
ATOM     3   C9  UNL     1       0.770  -1.063  -0.834  1.00  0.00     0.127 A   
ATOM     4   N3  UNL     1       1.293  -2.325  -0.958  1.00  0.00    -0.132 NA  
ATOM     5   N4  UNL     1       0.289  -3.172  -1.116  1.00  0.00    -0.076 NA  
ATOM     6   H7  UNL     1      -1.391  -0.392  -0.885  1.00  0.00     0.083 HD  
ENDROOT
BRANCH   1   7
ATOM     7   C7  UNL     1      -2.145  -3.122  -1.224  1.00  0.00     0.172 C   
BRANCH   7   8
ATOM     8   C6  UNL     1      -2.676  -3.528   0.127  1.00  0.00     0.003 A   
ATOM     9   C1  UNL     1      -3.390  -2.633   0.932  1.00  0.00     0.095 A   
ATOM     10  C2  UNL     1      -3.865  -3.022   2.191  1.00  0.00     0.071 A   
ATOM     11  C3  UNL     1      -3.630  -4.311   2.662  1.00  0.00     0.023 A   
ATOM     12  C5  UNL     1      -2.437  -4.822   0.618  1.00  0.00     0.008 A   
ATOM     13  C4  UNL     1      -2.914  -5.211   1.873  1.00  0.00     0.002 A   
ATOM     14  CL1 UNL     1      -4.732  -1.902   3.175  1.00  0.00    -0.081 Cl  
BRANCH   9  15
ATOM     15  O1  UNL     1      -3.610  -1.364   0.461  1.00  0.00    -0.359 OA  
ATOM     16  H1  UNL     1      -4.229  -0.934   1.087  1.00  0.00     0.218 HD  
ENDBRANCH   9  15
ENDBRANCH   7   8
ENDBRANCH   1   7
BRANCH   3  17
ATOM     17  C10 UNL     1       1.677   0.089  -0.558  1.00  0.00     0.117 C   
BRANCH  17  18
ATOM     18  N2  UNL     1       2.846  -0.358   0.289  1.00  0.00     0.249 N   
ATOM     19  H9  UNL     1       3.235  -1.190  -0.176  1.00  0.00     0.199 HD  
ATOM     20  H10 UNL     1       3.580   0.354   0.305  1.00  0.00     0.199 HD  
BRANCH  18  21
ATOM     21  C11 UNL     1       2.527  -0.769   1.690  1.00  0.00     0.164 C   
BRANCH  21  22
ATOM     22  C12 UNL     1       1.962   0.347   2.523  1.00  0.00    -0.002 A   
ATOM     23  C13 UNL     1       0.597   0.329   2.903  1.00  0.00     0.012 A   
ATOM     24  C17 UNL     1       2.771   1.431   2.904  1.00  0.00     0.045 A   
ATOM     25  C14 UNL     1       0.044   1.376   3.647  1.00  0.00     0.037 A   
ATOM     26  C16 UNL     1       2.193   2.448   3.635  1.00  0.00     0.109 A   
ATOM     27  C15 UNL     1       0.868   2.422   3.995  1.00  0.00     0.108 A   
ATOM     28  O2  UNL     1       2.829   3.566   4.073  1.00  0.00    -0.316 OA  
ATOM     29  O3  UNL     1       0.504   3.519   4.709  1.00  0.00    -0.316 OA  
ATOM     30  C18 UNL     1       1.758   4.232   4.781  1.00  0.00     0.337 C   
ENDBRANCH  21  22
ENDBRANCH  18  21
ENDBRANCH  17  18
BRANCH  17  31
ATOM     31  C19 UNL     1       2.173   0.754  -1.858  1.00  0.00     0.043 C   
ATOM     32  C20 UNL     1       2.882   2.105  -1.650  1.00  0.00     0.010 C   
ATOM     33  C23 UNL     1       3.149  -0.059  -2.714  1.00  0.00     0.010 C   
ATOM     34  C21 UNL     1       3.976   2.182  -2.716  1.00  0.00     0.001 C   
ATOM     35  C22 UNL     1       3.741   0.994  -3.638  1.00  0.00     0.001 C   
ENDBRANCH  17  31
ENDBRANCH   3  17
TORSDOF 8
