REMARK SMILES CC(C)[C@H]([NH2+]Cc1ccc2c(c1)OCO2)c1cn(Cc2cccc(N(C)C)c2)nn1
REMARK SMILES IDX 16 1 17 2 18 3 29 4 30 5 4 7 2 8 1 9 3 10 5 11 6 14 7 15
REMARK SMILES IDX 8 16 12 17 9 18 11 19 10 20 13 21 15 22 14 23 19 24 20 25
REMARK SMILES IDX 21 26 28 27 22 28 24 29 23 30 25 31 26 32 27 33
REMARK H PARENT 17 6 5 12 5 13
ROOT
ATOM     1   C13 UNL     1       3.310   0.585  -1.145  1.00  0.00     0.127 A   
ATOM     2   C14 UNL     1       2.350   1.478  -1.565  1.00  0.00     0.046 A   
ATOM     3   N2  UNL     1       2.310   1.305  -2.923  1.00  0.00    -0.208 N   
ATOM     4   N4  UNL     1       3.231   0.402  -3.319  1.00  0.00    -0.076 NA  
ATOM     5   N5  UNL     1       3.854  -0.042  -2.239  1.00  0.00    -0.132 NA  
ATOM     6   H18 UNL     1       1.669   2.142  -1.044  1.00  0.00     0.083 HD  
ENDROOT
BRANCH   1   7
ATOM     7   C4  UNL     1       3.714   0.168   0.230  1.00  0.00     0.117 C   
BRANCH   7   8
ATOM     8   C2  UNL     1       4.946   0.930   0.789  1.00  0.00     0.037 C   
ATOM     9   C1  UNL     1       6.227   0.760  -0.040  1.00  0.00     0.014 C   
ATOM     10  C3  UNL     1       4.646   2.425   0.972  1.00  0.00     0.014 C   
ENDBRANCH   7   8
BRANCH   7  11
ATOM     11  N1  UNL     1       4.008  -1.317   0.267  1.00  0.00     0.249 N   
ATOM     12  H9  UNL     1       4.424  -1.568   1.167  1.00  0.00     0.199 HD  
ATOM     13  H10 UNL     1       4.711  -1.492  -0.461  1.00  0.00     0.199 HD  
BRANCH  11  14
ATOM     14  C5  UNL     1       2.864  -2.236  -0.025  1.00  0.00     0.164 C   
BRANCH  14  15
ATOM     15  C6  UNL     1       1.725  -2.113   0.950  1.00  0.00    -0.002 A   
ATOM     16  C7  UNL     1       0.482  -1.574   0.533  1.00  0.00     0.012 A   
ATOM     17  C11 UNL     1       1.889  -2.521   2.287  1.00  0.00     0.045 A   
ATOM     18  C8  UNL     1      -0.582  -1.436   1.432  1.00  0.00     0.037 A   
ATOM     19  C10 UNL     1       0.819  -2.371   3.147  1.00  0.00     0.109 A   
ATOM     20  C9  UNL     1      -0.381  -1.844   2.733  1.00  0.00     0.108 A   
ATOM     21  O1  UNL     1       0.813  -2.700   4.465  1.00  0.00    -0.316 OA  
ATOM     22  O2  UNL     1      -1.295  -1.789   3.735  1.00  0.00    -0.316 OA  
ATOM     23  C12 UNL     1      -0.552  -2.390   4.818  1.00  0.00     0.337 C   
ENDBRANCH  14  15
ENDBRANCH  11  14
ENDBRANCH   7  11
ENDBRANCH   1   7
BRANCH   3  24
ATOM     24  C15 UNL     1       1.349   1.857  -3.867  1.00  0.00     0.169 C   
BRANCH  24  25
ATOM     25  C16 UNL     1      -0.060   1.470  -3.477  1.00  0.00    -0.027 A   
ATOM     26  C17 UNL     1      -0.989   2.438  -3.098  1.00  0.00     0.005 A   
ATOM     27  C23 UNL     1      -0.444   0.114  -3.460  1.00  0.00     0.029 A   
ATOM     28  C18 UNL     1      -2.261   2.051  -2.691  1.00  0.00     0.002 A   
ATOM     29  C20 UNL     1      -1.724  -0.313  -3.056  1.00  0.00     0.028 A   
ATOM     30  C19 UNL     1      -2.615   0.696  -2.659  1.00  0.00     0.023 A   
BRANCH  29  31
ATOM     31  N3  UNL     1      -2.044  -1.680  -3.010  1.00  0.00    -0.337 N   
ATOM     32  C21 UNL     1      -1.539  -2.487  -4.129  1.00  0.00     0.129 C   
ATOM     33  C22 UNL     1      -3.382  -2.068  -2.553  1.00  0.00     0.129 C   
ENDBRANCH  29  31
ENDBRANCH  24  25
ENDBRANCH   3  24
TORSDOF 8
