REMARK SMILES Cc1c(Cl)ccnc1Cn1cc([C@@H]([NH2+]Cc2ccc3c(c2)OCO3)C(C)C)nn1
REMARK SMILES IDX 10 1 11 2 12 3 28 4 29 5 9 7 8 8 2 9 3 10 5 11 7 12 6 13
REMARK SMILES IDX 1 14 4 15 13 16 14 17 15 20 16 21 17 22 21 23 18 24 20 25
REMARK SMILES IDX 19 26 22 27 24 28 23 29 25 30 26 31 27 32
REMARK H PARENT 11 6 14 18 14 19
ROOT
ATOM     1   N2  UNL     1      -0.472  -1.203  -1.720  1.00  0.00    -0.206 N   
ATOM     2   C8  UNL     1       0.167  -1.766  -0.648  1.00  0.00     0.046 A   
ATOM     3   C9  UNL     1      -0.714  -1.591   0.394  1.00  0.00     0.127 A   
ATOM     4   N4  UNL     1      -1.836  -0.950  -0.067  1.00  0.00    -0.132 NA  
ATOM     5   N5  UNL     1      -1.683  -0.733  -1.363  1.00  0.00    -0.076 NA  
ATOM     6   H8  UNL     1       1.156  -2.196  -0.731  1.00  0.00     0.083 HD  
ENDROOT
BRANCH   1   7
ATOM     7   C7  UNL     1      -0.025  -1.148  -3.098  1.00  0.00     0.190 C   
BRANCH   7   8
ATOM     8   C6  UNL     1       1.002  -0.060  -3.286  1.00  0.00     0.064 A   
ATOM     9   C2  UNL     1       0.684   1.214  -3.781  1.00  0.00    -0.009 A   
ATOM     10  C3  UNL     1       1.758   2.094  -3.989  1.00  0.00     0.047 A   
ATOM     11  C4  UNL     1       3.059   1.729  -3.662  1.00  0.00     0.041 A   
ATOM     12  N1  UNL     1       2.274  -0.421  -2.949  1.00  0.00    -0.259 NA  
ATOM     13  C5  UNL     1       3.264   0.472  -3.144  1.00  0.00     0.113 A   
ATOM     14  C1  UNL     1      -0.725   1.590  -4.148  1.00  0.00     0.048 C   
ATOM     15  CL1 UNL     1       1.537   3.666  -4.677  1.00  0.00    -0.084 Cl  
ENDBRANCH   7   8
ENDBRANCH   1   7
BRANCH   3  16
ATOM     16  C10 UNL     1      -0.600  -1.918   1.846  1.00  0.00     0.117 C   
BRANCH  16  17
ATOM     17  N3  UNL     1      -1.263  -0.832   2.670  1.00  0.00     0.249 N   
ATOM     18  H10 UNL     1      -2.000  -0.429   2.068  1.00  0.00     0.199 HD  
ATOM     19  H11 UNL     1      -1.745  -1.238   3.478  1.00  0.00     0.199 HD  
BRANCH  17  20
ATOM     20  C11 UNL     1      -0.381   0.273   3.139  1.00  0.00     0.164 C   
BRANCH  20  21
ATOM     21  C12 UNL     1       0.119   1.167   2.041  1.00  0.00    -0.002 A   
ATOM     22  C13 UNL     1       1.446   1.050   1.564  1.00  0.00     0.012 A   
ATOM     23  C17 UNL     1      -0.740   2.118   1.463  1.00  0.00     0.045 A   
ATOM     24  C14 UNL     1       1.913   1.866   0.527  1.00  0.00     0.037 A   
ATOM     25  C16 UNL     1      -0.246   2.912   0.449  1.00  0.00     0.109 A   
ATOM     26  C15 UNL     1       1.043   2.790  -0.006  1.00  0.00     0.108 A   
ATOM     27  O1  UNL     1      -0.937   3.886  -0.199  1.00  0.00    -0.316 OA  
ATOM     28  O2  UNL     1       1.328   3.674  -0.997  1.00  0.00    -0.316 OA  
ATOM     29  C18 UNL     1       0.077   4.387  -1.098  1.00  0.00     0.337 C   
ENDBRANCH  20  21
ENDBRANCH  17  20
ENDBRANCH  16  17
BRANCH  16  30
ATOM     30  C19 UNL     1      -1.225  -3.284   2.236  1.00  0.00     0.037 C   
ATOM     31  C20 UNL     1      -0.462  -4.454   1.603  1.00  0.00     0.014 C   
ATOM     32  C21 UNL     1      -2.719  -3.408   1.915  1.00  0.00     0.014 C   
ENDBRANCH  16  30
ENDBRANCH   3  16
TORSDOF 7
