REMARK SMILES CC(C)[C@H]([NH2+]Cc1ccc2c(c1)OCO2)c1cn(CC(=O)c2ccc(F)c(F)c2)nn1
REMARK SMILES IDX 16 1 17 2 18 3 30 4 31 5 4 7 2 8 1 9 3 10 5 11 6 14 7 15
REMARK SMILES IDX 8 16 12 17 9 18 11 19 10 20 13 21 15 22 14 23 19 24 20 25
REMARK SMILES IDX 21 26 22 27 23 28 29 29 24 30 27 31 25 32 28 33 26 34
REMARK H PARENT 17 6 5 12 5 13
ROOT
ATOM     1   C13 UNL     1      -0.113  -0.088  -1.746  1.00  0.00     0.127 A   
ATOM     2   C14 UNL     1      -0.427  -1.115  -0.884  1.00  0.00     0.046 A   
ATOM     3   N2  UNL     1       0.739  -1.819  -0.777  1.00  0.00    -0.204 N   
ATOM     4   N3  UNL     1       1.692  -1.301  -1.573  1.00  0.00    -0.076 NA  
ATOM     5   N4  UNL     1       1.184  -0.234  -2.168  1.00  0.00    -0.132 NA  
ATOM     6   H18 UNL     1      -1.309  -1.357  -0.305  1.00  0.00     0.083 HD  
ENDROOT
BRANCH   1   7
ATOM     7   C4  UNL     1      -0.892   1.121  -2.147  1.00  0.00     0.117 C   
BRANCH   7   8
ATOM     8   C2  UNL     1      -1.610   0.942  -3.511  1.00  0.00     0.037 C   
ATOM     9   C1  UNL     1      -0.670   0.882  -4.720  1.00  0.00     0.014 C   
ATOM     10  C3  UNL     1      -2.666   2.032  -3.737  1.00  0.00     0.014 C   
ENDBRANCH   7   8
BRANCH   7  11
ATOM     11  N1  UNL     1       0.002   2.339  -2.177  1.00  0.00     0.249 N   
ATOM     12  H9  UNL     1       0.795   2.102  -2.787  1.00  0.00     0.199 HD  
ATOM     13  H10 UNL     1      -0.482   3.135  -2.598  1.00  0.00     0.199 HD  
BRANCH  11  14
ATOM     14  C5  UNL     1       0.588   2.762  -0.865  1.00  0.00     0.164 C   
BRANCH  14  15
ATOM     15  C6  UNL     1      -0.446   3.090   0.175  1.00  0.00    -0.002 A   
ATOM     16  C7  UNL     1      -0.590   2.264   1.317  1.00  0.00     0.012 A   
ATOM     17  C11 UNL     1      -1.298   4.196   0.009  1.00  0.00     0.045 A   
ATOM     18  C8  UNL     1      -1.575   2.528   2.275  1.00  0.00     0.037 A   
ATOM     19  C10 UNL     1      -2.260   4.425   0.971  1.00  0.00     0.109 A   
ATOM     20  C9  UNL     1      -2.396   3.614   2.071  1.00  0.00     0.108 A   
ATOM     21  O1  UNL     1      -3.168   5.436   0.954  1.00  0.00    -0.316 OA  
ATOM     22  O2  UNL     1      -3.406   4.016   2.887  1.00  0.00    -0.316 OA  
ATOM     23  C12 UNL     1      -3.873   5.191   2.192  1.00  0.00     0.337 C   
ENDBRANCH  14  15
ENDBRANCH  11  14
ENDBRANCH   7  11
ENDBRANCH   1   7
BRANCH   3  24
ATOM     24  C15 UNL     1       1.040  -2.935   0.097  1.00  0.00     0.214 C   
BRANCH  24  25
ATOM     25  C16 UNL     1       1.440  -2.447   1.472  1.00  0.00     0.182 C   
ATOM     26  O3  UNL     1       1.102  -1.345   1.905  1.00  0.00    -0.292 OA  
BRANCH  25  27
ATOM     27  C17 UNL     1       2.254  -3.347   2.342  1.00  0.00     0.022 A   
ATOM     28  C18 UNL     1       2.883  -2.795   3.471  1.00  0.00     0.015 A   
ATOM     29  C22 UNL     1       2.401  -4.711   2.071  1.00  0.00     0.054 A   
ATOM     30  C19 UNL     1       3.666  -3.595   4.309  1.00  0.00     0.043 A   
ATOM     31  C21 UNL     1       3.184  -5.496   2.914  1.00  0.00     0.159 A   
ATOM     32  C20 UNL     1       3.815  -4.946   4.023  1.00  0.00     0.158 A   
ATOM     33  F2  UNL     1       3.317  -6.801   2.642  1.00  0.00    -0.204 F   
ATOM     34  F1  UNL     1       4.563  -5.712   4.826  1.00  0.00    -0.204 F   
ENDBRANCH  25  27
ENDBRANCH  24  25
ENDBRANCH   3  24
TORSDOF 8
