REMARK SMILES CC(C)C[C@H]([NH2+]Cc1ccc2c(c1)OCO2)c1cn(Cc2ccc3ccn(C)c3c2)nn1
REMARK SMILES IDX 17 1 18 2 19 3 31 4 32 5 5 7 4 8 2 9 1 10 3 11 6 12 7 15
REMARK SMILES IDX 8 16 9 17 13 18 10 19 12 20 11 21 14 22 16 23 15 24 20 25
REMARK SMILES IDX 21 26 22 27 30 28 23 29 29 30 24 31 27 32 25 33 26 34 28 35
REMARK H PARENT 18 6 6 13 6 14
ROOT
ATOM     1   C14 UNL     1       0.350   0.489  -2.111  1.00  0.00     0.127 A   
ATOM     2   C15 UNL     1       0.769   1.333  -1.107  1.00  0.00     0.046 A   
ATOM     3   N2  UNL     1      -0.390   1.695  -0.473  1.00  0.00    -0.208 N   
ATOM     4   N4  UNL     1      -1.457   1.123  -1.065  1.00  0.00    -0.076 NA  
ATOM     5   N5  UNL     1      -1.016   0.384  -2.069  1.00  0.00    -0.132 NA  
ATOM     6   H20 UNL     1       1.740   1.669  -0.770  1.00  0.00     0.083 HD  
ENDROOT
BRANCH   1   7
ATOM     7   C5  UNL     1       1.115  -0.329  -3.094  1.00  0.00     0.114 C   
BRANCH   7   8
ATOM     8   C4  UNL     1       1.099   0.274  -4.511  1.00  0.00     0.064 C   
BRANCH   8   9
ATOM     9   C2  UNL     1       1.770   1.658  -4.645  1.00  0.00    -0.012 C   
ATOM     10  C1  UNL     1       1.610   2.168  -6.080  1.00  0.00     0.007 C   
ATOM     11  C3  UNL     1       3.252   1.628  -4.272  1.00  0.00     0.007 C   
ENDBRANCH   8   9
ENDBRANCH   7   8
BRANCH   7  12
ATOM     12  N1  UNL     1       0.499  -1.704  -3.196  1.00  0.00     0.249 N   
ATOM     13  H11 UNL     1       0.849  -2.209  -4.017  1.00  0.00     0.199 HD  
ATOM     14  H12 UNL     1      -0.512  -1.567  -3.346  1.00  0.00     0.199 HD  
BRANCH  12  15
ATOM     15  C6  UNL     1       0.655  -2.567  -1.990  1.00  0.00     0.164 C   
BRANCH  15  16
ATOM     16  C7  UNL     1      -0.019  -3.892  -2.210  1.00  0.00    -0.002 A   
ATOM     17  C8  UNL     1      -1.412  -4.024  -1.996  1.00  0.00     0.012 A   
ATOM     18  C12 UNL     1       0.718  -4.991  -2.682  1.00  0.00     0.045 A   
ATOM     19  C9  UNL     1      -2.063  -5.237  -2.241  1.00  0.00     0.037 A   
ATOM     20  C11 UNL     1       0.044  -6.173  -2.912  1.00  0.00     0.109 A   
ATOM     21  C10 UNL     1      -1.306  -6.292  -2.700  1.00  0.00     0.108 A   
ATOM     22  O1  UNL     1       0.603  -7.325  -3.366  1.00  0.00    -0.316 OA  
ATOM     23  O2  UNL     1      -1.767  -7.535  -2.993  1.00  0.00    -0.316 OA  
ATOM     24  C13 UNL     1      -0.550  -8.194  -3.401  1.00  0.00     0.337 C   
ENDBRANCH  15  16
ENDBRANCH  12  15
ENDBRANCH   7  12
ENDBRANCH   1   7
BRANCH   3  25
ATOM     25  C16 UNL     1      -0.546   2.511   0.720  1.00  0.00     0.169 C   
BRANCH  25  26
ATOM     26  C17 UNL     1      -0.067   1.760   1.940  1.00  0.00    -0.027 A   
ATOM     27  C18 UNL     1      -0.824   0.696   2.446  1.00  0.00     0.006 A   
ATOM     28  C25 UNL     1       1.151   2.110   2.554  1.00  0.00     0.030 A   
ATOM     29  C19 UNL     1      -0.385  -0.044   3.548  1.00  0.00     0.010 A   
ATOM     30  C24 UNL     1       1.579   1.358   3.661  1.00  0.00     0.040 A   
ATOM     31  C20 UNL     1       0.836   0.286   4.162  1.00  0.00    -0.003 A   
ATOM     32  N3  UNL     1       2.700   1.472   4.458  1.00  0.00    -0.310 N   
ATOM     33  C21 UNL     1       1.553  -0.247   5.265  1.00  0.00     0.025 A   
ATOM     34  C22 UNL     1       2.699   0.497   5.421  1.00  0.00     0.075 A   
ATOM     35  C23 UNL     1       3.724   2.484   4.318  1.00  0.00     0.136 C   
ENDBRANCH  25  26
ENDBRANCH   3  25
TORSDOF 8
