REMARK SMILES CC(C)(C)[C@H]([NH2+]Cc1ccc2c(c1)OCO2)c1cn(CC(=O)c2cccc(F)c2)nn1
REMARK SMILES IDX 17 1 18 2 19 3 30 4 31 5 5 7 2 8 1 9 3 10 4 11 6 12 7 15
REMARK SMILES IDX 8 16 9 17 13 18 10 19 12 20 11 21 14 22 16 23 15 24 20 25
REMARK SMILES IDX 21 26 22 27 23 28 24 29 29 30 25 31 27 32 26 33 28 34
REMARK H PARENT 18 6 6 13 6 14
ROOT
ATOM     1   C14 UNL     1      -0.297  -0.120   1.319  1.00  0.00     0.127 A   
ATOM     2   C15 UNL     1      -1.438   0.316   0.683  1.00  0.00     0.046 A   
ATOM     3   N2  UNL     1      -1.422   1.669   0.878  1.00  0.00    -0.204 N   
ATOM     4   N3  UNL     1      -0.381   2.035   1.647  1.00  0.00    -0.076 NA  
ATOM     5   N4  UNL     1       0.324   0.948   1.914  1.00  0.00    -0.132 NA  
ATOM     6   H20 UNL     1      -2.180  -0.174   0.068  1.00  0.00     0.083 HD  
ENDROOT
BRANCH   1   7
ATOM     7   C5  UNL     1       0.369  -1.459   1.317  1.00  0.00     0.120 C   
BRANCH   7   8
ATOM     8   C2  UNL     1       0.156  -2.290   2.631  1.00  0.00     0.010 C   
ATOM     9   C1  UNL     1       0.806  -1.641   3.869  1.00  0.00     0.017 C   
ATOM     10  C3  UNL     1      -1.356  -2.457   2.908  1.00  0.00     0.017 C   
ATOM     11  C4  UNL     1       0.744  -3.711   2.466  1.00  0.00     0.017 C   
ENDBRANCH   7   8
BRANCH   7  12
ATOM     12  N1  UNL     1       1.849  -1.267   1.043  1.00  0.00     0.250 N   
ATOM     13  H11 UNL     1       2.180  -0.573   1.727  1.00  0.00     0.199 HD  
ATOM     14  H12 UNL     1       2.369  -2.131   1.203  1.00  0.00     0.199 HD  
BRANCH  12  15
ATOM     15  C6  UNL     1       2.208  -0.736  -0.311  1.00  0.00     0.164 C   
BRANCH  15  16
ATOM     16  C7  UNL     1       1.832  -1.669  -1.428  1.00  0.00    -0.002 A   
ATOM     17  C8  UNL     1       2.531  -2.887  -1.612  1.00  0.00     0.012 A   
ATOM     18  C12 UNL     1       0.758  -1.351  -2.279  1.00  0.00     0.045 A   
ATOM     19  C9  UNL     1       2.161  -3.781  -2.622  1.00  0.00     0.037 A   
ATOM     20  C11 UNL     1       0.417  -2.257  -3.261  1.00  0.00     0.109 A   
ATOM     21  C10 UNL     1       1.097  -3.438  -3.428  1.00  0.00     0.108 A   
ATOM     22  O1  UNL     1      -0.600  -2.115  -4.151  1.00  0.00    -0.316 OA  
ATOM     23  O2  UNL     1       0.599  -4.186  -4.446  1.00  0.00    -0.316 OA  
ATOM     24  C13 UNL     1      -0.461  -3.330  -4.923  1.00  0.00     0.337 C   
ENDBRANCH  15  16
ENDBRANCH  12  15
ENDBRANCH   7  12
ENDBRANCH   1   7
BRANCH   3  25
ATOM     25  C16 UNL     1      -2.308   2.667   0.311  1.00  0.00     0.214 C   
BRANCH  25  26
ATOM     26  C17 UNL     1      -1.950   2.955  -1.132  1.00  0.00     0.182 C   
ATOM     27  O3  UNL     1      -1.194   2.231  -1.780  1.00  0.00    -0.292 OA  
BRANCH  26  28
ATOM     28  C18 UNL     1      -2.566   4.143  -1.796  1.00  0.00     0.022 A   
ATOM     29  C19 UNL     1      -2.122   4.495  -3.081  1.00  0.00     0.012 A   
ATOM     30  C23 UNL     1      -3.570   4.902  -1.187  1.00  0.00     0.051 A   
ATOM     31  C20 UNL     1      -2.671   5.596  -3.747  1.00  0.00     0.004 A   
ATOM     32  C22 UNL     1      -4.105   5.996  -1.862  1.00  0.00     0.123 A   
ATOM     33  C21 UNL     1      -3.667   6.350  -3.132  1.00  0.00     0.039 A   
ATOM     34  F1  UNL     1      -5.067   6.716  -1.272  1.00  0.00    -0.207 F   
ENDBRANCH  26  28
ENDBRANCH  25  26
ENDBRANCH   3  25
TORSDOF 8
