REMARK SMILES COc1ccccc1[C@H](O)Cn1cc([C@@H]([NH2+]Cc2ccc3c(c2)OCO3)C(C)(C)C)nn1
REMARK SMILES IDX 12 1 13 2 14 3 31 4 32 5 11 7 9 8 8 9 3 10 4 11 5 12 7 13
REMARK SMILES IDX 6 14 2 15 1 16 10 17 15 19 16 20 17 23 18 24 19 25 23 26
REMARK SMILES IDX 20 27 22 28 21 29 24 30 26 31 25 32 27 33 28 34 29 35 30 36
REMARK H PARENT 13 6 10 18 16 21 16 22
ROOT
ATOM     1   N1  UNL     1       0.856  -0.887   2.157  1.00  0.00    -0.209 N   
ATOM     2   C10 UNL     1       0.308   0.366   2.188  1.00  0.00     0.046 A   
ATOM     3   C11 UNL     1       0.165   0.699   0.860  1.00  0.00     0.127 A   
ATOM     4   N3  UNL     1       0.689  -0.305   0.086  1.00  0.00    -0.132 NA  
ATOM     5   N4  UNL     1       1.133  -1.255   0.891  1.00  0.00    -0.076 NA  
ATOM     6   H12 UNL     1       0.055   0.859   3.117  1.00  0.00     0.083 HD  
ENDROOT
BRANCH   1   7
ATOM     7   C9  UNL     1       1.229  -1.733   3.274  1.00  0.00     0.170 C   
BRANCH   7   8
ATOM     8   C8  UNL     1       0.033  -2.315   4.041  1.00  0.00     0.166 C   
BRANCH   8   9
ATOM     9   C7  UNL     1      -0.918  -3.127   3.180  1.00  0.00     0.012 A   
ATOM     10  C2  UNL     1      -0.574  -4.438   2.790  1.00  0.00     0.080 A   
ATOM     11  C3  UNL     1      -1.447  -5.174   1.984  1.00  0.00     0.034 A   
ATOM     12  C4  UNL     1      -2.656  -4.619   1.560  1.00  0.00     0.003 A   
ATOM     13  C6  UNL     1      -2.136  -2.582   2.735  1.00  0.00     0.009 A   
ATOM     14  C5  UNL     1      -3.000  -3.325   1.933  1.00  0.00     0.001 A   
BRANCH  10  15
ATOM     15  O1  UNL     1       0.635  -4.894   3.250  1.00  0.00    -0.349 OA  
ATOM     16  C1  UNL     1       1.000  -6.229   2.915  1.00  0.00     0.203 C   
ENDBRANCH  10  15
ENDBRANCH   8   9
BRANCH   8  17
ATOM     17  O2  UNL     1      -0.655  -1.266   4.739  1.00  0.00    -0.387 OA  
ATOM     18  H9  UNL     1      -1.345  -1.708   5.271  1.00  0.00     0.211 HD  
ENDBRANCH   8  17
ENDBRANCH   7   8
ENDBRANCH   1   7
BRANCH   3  19
ATOM     19  C12 UNL     1      -0.368   1.932   0.197  1.00  0.00     0.120 C   
BRANCH  19  20
ATOM     20  N2  UNL     1       0.416   2.169  -1.074  1.00  0.00     0.250 N   
ATOM     21  H14 UNL     1      -0.067   2.788  -1.729  1.00  0.00     0.199 HD  
ATOM     22  H15 UNL     1       0.488   1.252  -1.543  1.00  0.00     0.199 HD  
BRANCH  20  23
ATOM     23  C13 UNL     1       1.807   2.667  -0.883  1.00  0.00     0.164 C   
BRANCH  23  24
ATOM     24  C14 UNL     1       2.496   2.814  -2.210  1.00  0.00    -0.002 A   
ATOM     25  C15 UNL     1       2.533   4.067  -2.866  1.00  0.00     0.012 A   
ATOM     26  C19 UNL     1       3.063   1.687  -2.833  1.00  0.00     0.045 A   
ATOM     27  C16 UNL     1       3.135   4.201  -4.122  1.00  0.00     0.037 A   
ATOM     28  C18 UNL     1       3.645   1.854  -4.072  1.00  0.00     0.109 A   
ATOM     29  C17 UNL     1       3.681   3.075  -4.698  1.00  0.00     0.108 A   
ATOM     30  O3  UNL     1       4.231   0.874  -4.809  1.00  0.00    -0.316 OA  
ATOM     31  O4  UNL     1       4.297   3.019  -5.907  1.00  0.00    -0.316 OA  
ATOM     32  C20 UNL     1       4.664   1.624  -5.967  1.00  0.00     0.337 C   
ENDBRANCH  23  24
ENDBRANCH  20  23
ENDBRANCH  19  20
BRANCH  19  33
ATOM     33  C21 UNL     1      -1.905   1.879  -0.114  1.00  0.00     0.010 C   
ATOM     34  C22 UNL     1      -2.705   1.627   1.185  1.00  0.00     0.017 C   
ATOM     35  C23 UNL     1      -2.269   0.775  -1.128  1.00  0.00     0.017 C   
ATOM     36  C24 UNL     1      -2.388   3.236  -0.679  1.00  0.00     0.017 C   
ENDBRANCH  19  33
ENDBRANCH   3  19
TORSDOF 10
