REMARK SMILES COc1ccccc1[C@@H](O)Cn1cc([C@@H]([NH2+]Cc2ccc3c(c2)OCO3)C(C)(C)C)nn1
REMARK SMILES IDX 12 1 13 2 14 3 31 4 32 5 11 7 9 8 8 9 3 10 4 11 5 12 7 13
REMARK SMILES IDX 6 14 2 15 1 16 10 17 15 19 16 20 17 23 18 24 19 25 23 26
REMARK SMILES IDX 20 27 22 28 21 29 24 30 26 31 25 32 27 33 28 34 29 35 30 36
REMARK H PARENT 13 6 10 18 16 21 16 22
ROOT
ATOM     1   N1  UNL     1      -0.176   0.238  -2.854  1.00  0.00    -0.209 N   
ATOM     2   C10 UNL     1      -0.524  -0.107  -1.579  1.00  0.00     0.046 A   
ATOM     3   C11 UNL     1      -0.960   1.076  -1.023  1.00  0.00     0.127 A   
ATOM     4   N3  UNL     1      -0.876   2.072  -1.964  1.00  0.00    -0.132 NA  
ATOM     5   N4  UNL     1      -0.389   1.548  -3.076  1.00  0.00    -0.076 NA  
ATOM     6   H12 UNL     1      -0.407  -1.111  -1.196  1.00  0.00     0.083 HD  
ENDROOT
BRANCH   1   7
ATOM     7   C9  UNL     1       0.340  -0.613  -3.901  1.00  0.00     0.170 C   
BRANCH   7   8
ATOM     8   C8  UNL     1       1.871  -0.686  -3.913  1.00  0.00     0.166 C   
BRANCH   8   9
ATOM     9   C7  UNL     1       2.434  -1.464  -2.737  1.00  0.00     0.012 A   
ATOM     10  C2  UNL     1       3.061  -0.819  -1.659  1.00  0.00     0.080 A   
ATOM     11  C3  UNL     1       3.544  -1.558  -0.572  1.00  0.00     0.034 A   
ATOM     12  C4  UNL     1       3.427  -2.946  -0.561  1.00  0.00     0.003 A   
ATOM     13  C6  UNL     1       2.324  -2.867  -2.706  1.00  0.00     0.009 A   
ATOM     14  C5  UNL     1       2.818  -3.601  -1.628  1.00  0.00     0.001 A   
BRANCH  10  15
ATOM     15  O1  UNL     1       3.114   0.552  -1.660  1.00  0.00    -0.349 OA  
ATOM     16  C1  UNL     1       4.447   1.041  -1.480  1.00  0.00     0.203 C   
ENDBRANCH  10  15
ENDBRANCH   8   9
BRANCH   8  17
ATOM     17  O2  UNL     1       2.281  -1.321  -5.131  1.00  0.00    -0.387 OA  
ATOM     18  H9  UNL     1       3.232  -1.519  -5.048  1.00  0.00     0.211 HD  
ENDBRANCH   8  17
ENDBRANCH   7   8
ENDBRANCH   1   7
BRANCH   3  19
ATOM     19  C12 UNL     1      -1.389   1.415   0.371  1.00  0.00     0.120 C   
BRANCH  19  20
ATOM     20  N2  UNL     1      -0.914   2.819   0.698  1.00  0.00     0.250 N   
ATOM     21  H14 UNL     1      -1.212   3.407  -0.094  1.00  0.00     0.199 HD  
ATOM     22  H15 UNL     1      -1.368   3.180   1.538  1.00  0.00     0.199 HD  
BRANCH  20  23
ATOM     23  C13 UNL     1       0.563   3.001   0.833  1.00  0.00     0.164 C   
BRANCH  23  24
ATOM     24  C14 UNL     1       1.128   2.317   2.047  1.00  0.00    -0.002 A   
ATOM     25  C15 UNL     1       0.902   2.841   3.342  1.00  0.00     0.012 A   
ATOM     26  C19 UNL     1       1.866   1.129   1.899  1.00  0.00     0.045 A   
ATOM     27  C16 UNL     1       1.398   2.187   4.476  1.00  0.00     0.037 A   
ATOM     28  C18 UNL     1       2.345   0.512   3.035  1.00  0.00     0.109 A   
ATOM     29  C17 UNL     1       2.114   1.024   4.288  1.00  0.00     0.108 A   
ATOM     30  O3  UNL     1       3.071  -0.636   3.067  1.00  0.00    -0.316 OA  
ATOM     31  O4  UNL     1       2.666   0.263   5.269  1.00  0.00    -0.316 OA  
ATOM     32  C20 UNL     1       3.300  -0.774   4.489  1.00  0.00     0.337 C   
ENDBRANCH  23  24
ENDBRANCH  20  23
ENDBRANCH  19  20
BRANCH  19  33
ATOM     33  C21 UNL     1      -2.936   1.294   0.614  1.00  0.00     0.010 C   
ATOM     34  C22 UNL     1      -3.418  -0.136   0.277  1.00  0.00     0.017 C   
ATOM     35  C23 UNL     1      -3.267   1.536   2.106  1.00  0.00     0.017 C   
ATOM     36  C24 UNL     1      -3.754   2.292  -0.230  1.00  0.00     0.017 C   
ENDBRANCH  19  33
ENDBRANCH   3  19
TORSDOF 10
