REMARK SMILES CC(C)(C)[C@H]([NH2+]Cc1ccc2c(c1)OCO2)c1cn([C@@H](CO)c2ccncc2)nn1
REMARK SMILES IDX 17 1 18 2 19 3 29 4 30 5 5 7 2 8 1 9 3 10 4 11 6 12 7 15
REMARK SMILES IDX 8 16 9 17 13 18 10 19 12 20 11 21 14 22 16 23 15 24 20 25
REMARK SMILES IDX 21 26 22 27 23 29 24 30 28 31 25 32 27 33 26 34
REMARK H PARENT 18 6 6 13 6 14 22 28
ROOT
ATOM     1   C14 UNL     1       0.574  -0.095  -1.011  1.00  0.00     0.127 A   
ATOM     2   C15 UNL     1       0.555   0.458  -2.271  1.00  0.00     0.046 A   
ATOM     3   N2  UNL     1       1.165  -0.481  -3.061  1.00  0.00    -0.202 N   
ATOM     4   N4  UNL     1       1.476  -1.578  -2.337  1.00  0.00    -0.075 NA  
ATOM     5   N5  UNL     1       1.129  -1.349  -1.081  1.00  0.00    -0.132 NA  
ATOM     6   H20 UNL     1       0.201   1.400  -2.668  1.00  0.00     0.083 HD  
ENDROOT
BRANCH   1   7
ATOM     7   C5  UNL     1       0.056   0.417   0.298  1.00  0.00     0.120 C   
BRANCH   7   8
ATOM     8   C2  UNL     1       1.105   1.243   1.124  1.00  0.00     0.010 C   
ATOM     9   C1  UNL     1       0.443   1.846   2.385  1.00  0.00     0.017 C   
ATOM     10  C3  UNL     1       1.633   2.430   0.286  1.00  0.00     0.017 C   
ATOM     11  C4  UNL     1       2.312   0.393   1.570  1.00  0.00     0.017 C   
ENDBRANCH   7   8
BRANCH   7  12
ATOM     12  N1  UNL     1      -0.447  -0.753   1.111  1.00  0.00     0.250 N   
ATOM     13  H11 UNL     1      -0.532  -0.533   2.106  1.00  0.00     0.199 HD  
ATOM     14  H12 UNL     1       0.269  -1.491   1.039  1.00  0.00     0.199 HD  
BRANCH  12  15
ATOM     15  C6  UNL     1      -1.732  -1.344   0.645  1.00  0.00     0.164 C   
BRANCH  15  16
ATOM     16  C7  UNL     1      -2.106  -2.519   1.503  1.00  0.00    -0.002 A   
ATOM     17  C8  UNL     1      -1.586  -3.804   1.213  1.00  0.00     0.012 A   
ATOM     18  C12 UNL     1      -2.926  -2.341   2.630  1.00  0.00     0.045 A   
ATOM     19  C9  UNL     1      -1.888  -4.901   2.027  1.00  0.00     0.037 A   
ATOM     20  C11 UNL     1      -3.204  -3.444   3.411  1.00  0.00     0.109 A   
ATOM     21  C10 UNL     1      -2.700  -4.688   3.119  1.00  0.00     0.108 A   
ATOM     22  O1  UNL     1      -3.977  -3.446   4.528  1.00  0.00    -0.316 OA  
ATOM     23  O2  UNL     1      -3.093  -5.629   4.015  1.00  0.00    -0.316 OA  
ATOM     24  C13 UNL     1      -3.917  -4.841   4.901  1.00  0.00     0.337 C   
ENDBRANCH  15  16
ENDBRANCH  12  15
ENDBRANCH   7  12
ENDBRANCH   1   7
BRANCH   3  25
ATOM     25  C16 UNL     1       1.512  -0.407  -4.481  1.00  0.00     0.155 C   
BRANCH  25  26
ATOM     26  C17 UNL     1       0.278  -0.665  -5.369  1.00  0.00     0.185 C   
BRANCH  26  27
ATOM     27  O3  UNL     1      -0.794   0.244  -5.117  1.00  0.00    -0.394 OA  
ATOM     28  H24 UNL     1      -1.492   0.049  -5.771  1.00  0.00     0.210 HD  
ENDBRANCH  26  27
ENDBRANCH  25  26
BRANCH  25  29
ATOM     29  C18 UNL     1       2.330   0.848  -4.761  1.00  0.00    -0.020 A   
ATOM     30  C19 UNL     1       1.806   1.986  -5.384  1.00  0.00     0.026 A   
ATOM     31  C22 UNL     1       3.673   0.890  -4.353  1.00  0.00     0.026 A   
ATOM     32  C20 UNL     1       2.626   3.090  -5.566  1.00  0.00     0.111 A   
ATOM     33  C21 UNL     1       4.413   2.040  -4.578  1.00  0.00     0.111 A   
ATOM     34  N3  UNL     1       3.913   3.142  -5.170  1.00  0.00    -0.265 NA  
ENDBRANCH  25  29
ENDBRANCH   3  25
TORSDOF 9
