REMARK SMILES CC(C)(C)[C@H]([NH2+]Cc1ccc2c(c1)OCO2)c1cn([C@H](CO)c2ccncc2)nn1
REMARK SMILES IDX 17 1 18 2 19 3 29 4 30 5 5 7 2 8 1 9 3 10 4 11 6 12 7 15
REMARK SMILES IDX 8 16 9 17 13 18 10 19 12 20 11 21 14 22 16 23 15 24 20 25
REMARK SMILES IDX 21 26 22 27 23 29 24 30 28 31 25 32 27 33 26 34
REMARK H PARENT 18 6 6 13 6 14 22 28
ROOT
ATOM     1   C14 UNL     1       0.332   0.900  -1.157  1.00  0.00     0.127 A   
ATOM     2   C15 UNL     1       1.550   0.851  -0.521  1.00  0.00     0.046 A   
ATOM     3   N2  UNL     1       2.183   2.000  -0.913  1.00  0.00    -0.202 N   
ATOM     4   N4  UNL     1       1.392   2.716  -1.741  1.00  0.00    -0.075 NA  
ATOM     5   N5  UNL     1       0.260   2.050  -1.900  1.00  0.00    -0.132 NA  
ATOM     6   H20 UNL     1       2.005   0.147   0.163  1.00  0.00     0.083 HD  
ENDROOT
BRANCH   1   7
ATOM     7   C5  UNL     1      -0.855  -0.006  -1.058  1.00  0.00     0.120 C   
BRANCH   7   8
ATOM     8   C2  UNL     1      -0.966  -1.050  -2.226  1.00  0.00     0.010 C   
ATOM     9   C1  UNL     1      -2.131  -2.032  -1.959  1.00  0.00     0.017 C   
ATOM     10  C3  UNL     1       0.327  -1.896  -2.304  1.00  0.00     0.017 C   
ATOM     11  C4  UNL     1      -1.197  -0.394  -3.602  1.00  0.00     0.017 C   
ENDBRANCH   7   8
BRANCH   7  12
ATOM     12  N1  UNL     1      -2.118   0.831  -0.975  1.00  0.00     0.250 N   
ATOM     13  H11 UNL     1      -2.950   0.242  -1.044  1.00  0.00     0.199 HD  
ATOM     14  H12 UNL     1      -2.109   1.454  -1.793  1.00  0.00     0.199 HD  
BRANCH  12  15
ATOM     15  C6  UNL     1      -2.256   1.707   0.231  1.00  0.00     0.164 C   
BRANCH  15  16
ATOM     16  C7  UNL     1      -2.307   0.939   1.522  1.00  0.00    -0.002 A   
ATOM     17  C8  UNL     1      -1.220   0.998   2.429  1.00  0.00     0.012 A   
ATOM     18  C12 UNL     1      -3.419   0.136   1.827  1.00  0.00     0.045 A   
ATOM     19  C9  UNL     1      -1.235   0.263   3.618  1.00  0.00     0.037 A   
ATOM     20  C11 UNL     1      -3.400  -0.577   3.008  1.00  0.00     0.109 A   
ATOM     21  C10 UNL     1      -2.338  -0.518   3.877  1.00  0.00     0.108 A   
ATOM     22  O1  UNL     1      -4.387  -1.402   3.447  1.00  0.00    -0.316 OA  
ATOM     23  O2  UNL     1      -2.522  -1.300   4.973  1.00  0.00    -0.316 OA  
ATOM     24  C13 UNL     1      -3.836  -1.840   4.711  1.00  0.00     0.337 C   
ENDBRANCH  15  16
ENDBRANCH  12  15
ENDBRANCH   7  12
ENDBRANCH   1   7
BRANCH   3  25
ATOM     25  C16 UNL     1       3.467   2.539  -0.464  1.00  0.00     0.155 C   
BRANCH  25  26
ATOM     26  C17 UNL     1       4.655   1.724  -1.012  1.00  0.00     0.185 C   
BRANCH  26  27
ATOM     27  O3  UNL     1       4.619   0.348  -0.635  1.00  0.00    -0.394 OA  
ATOM     28  H24 UNL     1       5.404  -0.076  -1.033  1.00  0.00     0.210 HD  
ENDBRANCH  26  27
ENDBRANCH  25  26
BRANCH  25  29
ATOM     29  C18 UNL     1       3.417   2.789   1.039  1.00  0.00    -0.020 A   
ATOM     30  C19 UNL     1       3.925   1.892   1.985  1.00  0.00     0.026 A   
ATOM     31  C22 UNL     1       2.786   3.951   1.516  1.00  0.00     0.026 A   
ATOM     32  C20 UNL     1       3.773   2.180   3.333  1.00  0.00     0.111 A   
ATOM     33  C21 UNL     1       2.686   4.153   2.883  1.00  0.00     0.111 A   
ATOM     34  N3  UNL     1       3.153   3.283   3.799  1.00  0.00    -0.265 NA  
ENDBRANCH  25  29
ENDBRANCH   3  25
TORSDOF 9
