REMARK SMILES CC(C)C[C@H]([NH2+]Cc1ccc2c(c1)OCO2)c1cn(CCc2ccc(N)cc2)nn1
REMARK SMILES IDX 17 1 18 2 19 3 29 4 30 5 5 7 4 8 2 9 1 10 3 11 6 12 7 15
REMARK SMILES IDX 8 16 9 17 13 18 10 19 12 20 11 21 14 22 16 23 15 24 20 25
REMARK SMILES IDX 21 26 22 27 23 28 28 29 24 30 27 31 25 32 26 33
REMARK H PARENT 18 6 6 13 6 14 26 34 26 35
ROOT
ATOM     1   C14 UNL     1       0.933  -1.318  -1.168  1.00  0.00     0.127 A   
ATOM     2   C15 UNL     1       2.211  -1.059  -0.724  1.00  0.00     0.045 A   
ATOM     3   N2  UNL     1       2.461  -2.073   0.164  1.00  0.00    -0.212 N   
ATOM     4   N4  UNL     1       1.477  -2.989   0.136  1.00  0.00    -0.076 NA  
ATOM     5   N5  UNL     1       0.523  -2.527  -0.659  1.00  0.00    -0.132 NA  
ATOM     6   H20 UNL     1       2.877  -0.216  -0.833  1.00  0.00     0.083 HD  
ENDROOT
BRANCH   1   7
ATOM     7   C5  UNL     1      -0.068  -0.484  -1.906  1.00  0.00     0.114 C   
BRANCH   7   8
ATOM     8   C4  UNL     1       0.455   0.852  -2.457  1.00  0.00     0.064 C   
BRANCH   8   9
ATOM     9   C2  UNL     1       1.453   0.723  -3.628  1.00  0.00    -0.012 C   
ATOM     10  C1  UNL     1       2.019   2.104  -3.975  1.00  0.00     0.007 C   
ATOM     11  C3  UNL     1       0.811   0.103  -4.871  1.00  0.00     0.007 C   
ENDBRANCH   8   9
ENDBRANCH   7   8
BRANCH   7  12
ATOM     12  N1  UNL     1      -1.197  -0.185  -0.947  1.00  0.00     0.249 N   
ATOM     13  H11 UNL     1      -1.190  -0.940  -0.244  1.00  0.00     0.199 HD  
ATOM     14  H12 UNL     1      -1.002   0.663  -0.383  1.00  0.00     0.199 HD  
BRANCH  12  15
ATOM     15  C6  UNL     1      -2.556  -0.119  -1.528  1.00  0.00     0.164 C   
BRANCH  15  16
ATOM     16  C7  UNL     1      -3.596   0.003  -0.450  1.00  0.00    -0.002 A   
ATOM     17  C8  UNL     1      -4.035  -1.147   0.250  1.00  0.00     0.012 A   
ATOM     18  C12 UNL     1      -4.098   1.265  -0.090  1.00  0.00     0.045 A   
ATOM     19  C9  UNL     1      -4.962  -1.045   1.292  1.00  0.00     0.037 A   
ATOM     20  C11 UNL     1      -5.008   1.330   0.945  1.00  0.00     0.109 A   
ATOM     21  C10 UNL     1      -5.429   0.209   1.617  1.00  0.00     0.108 A   
ATOM     22  O1  UNL     1      -5.571   2.467   1.430  1.00  0.00    -0.316 OA  
ATOM     23  O2  UNL     1      -6.317   0.498   2.602  1.00  0.00    -0.316 OA  
ATOM     24  C13 UNL     1      -6.449   1.926   2.445  1.00  0.00     0.337 C   
ENDBRANCH  15  16
ENDBRANCH  12  15
ENDBRANCH   7  12
ENDBRANCH   1   7
BRANCH   3  25
ATOM     25  C16 UNL     1       3.438  -2.060   1.238  1.00  0.00     0.139 C   
BRANCH  25  26
ATOM     26  C17 UNL     1       2.835  -1.692   2.610  1.00  0.00     0.057 C   
BRANCH  26  27
ATOM     27  C18 UNL     1       1.807  -0.581   2.531  1.00  0.00    -0.046 A   
ATOM     28  C19 UNL     1       0.449  -0.881   2.712  1.00  0.00     0.005 A   
ATOM     29  C23 UNL     1       2.168   0.706   2.116  1.00  0.00     0.005 A   
ATOM     30  C20 UNL     1      -0.531   0.059   2.396  1.00  0.00     0.023 A   
ATOM     31  C22 UNL     1       1.181   1.633   1.773  1.00  0.00     0.023 A   
ATOM     32  C21 UNL     1      -0.173   1.319   1.914  1.00  0.00     0.023 A   
BRANCH  32  33
ATOM     33  N3  UNL     1      -1.151   2.131   1.302  1.00  0.00    -0.358 N   
ATOM     34  H27 UNL     1      -2.047   2.047   1.791  1.00  0.00     0.143 HD  
ATOM     35  H28 UNL     1      -0.870   3.115   1.330  1.00  0.00     0.143 HD  
ENDBRANCH  32  33
ENDBRANCH  26  27
ENDBRANCH  25  26
ENDBRANCH   3  25
TORSDOF 10
