REMARK SMILES CC(C)[C@H]([NH2+]Cc1ccc2c(c1)OCO2)c1cn(CCc2cccc(Cl)n2)nn1
REMARK SMILES IDX 16 1 17 2 18 3 28 4 29 5 4 7 2 8 1 9 3 10 5 11 6 14 7 15
REMARK SMILES IDX 8 16 12 17 9 18 11 19 10 20 13 21 15 22 14 23 19 24 20 25
REMARK SMILES IDX 21 26 22 27 27 28 23 29 25 30 24 31 26 32
REMARK H PARENT 17 6 5 12 5 13
ROOT
ATOM     1   C13 UNL     1      -1.143  -2.349  -1.576  1.00  0.00     0.127 A   
ATOM     2   C14 UNL     1      -2.145  -2.439  -0.636  1.00  0.00     0.045 A   
ATOM     3   N2  UNL     1      -3.220  -1.861  -1.248  1.00  0.00    -0.212 N   
ATOM     4   N4  UNL     1      -2.943  -1.558  -2.527  1.00  0.00    -0.076 NA  
ATOM     5   N5  UNL     1      -1.671  -1.851  -2.740  1.00  0.00    -0.132 NA  
ATOM     6   H18 UNL     1      -2.178  -2.735   0.402  1.00  0.00     0.083 HD  
ENDROOT
BRANCH   1   7
ATOM     7   C4  UNL     1       0.337  -2.538  -1.484  1.00  0.00     0.117 C   
BRANCH   7   8
ATOM     8   C2  UNL     1       0.790  -3.740  -0.612  1.00  0.00     0.037 C   
ATOM     9   C1  UNL     1       2.179  -4.231  -1.048  1.00  0.00     0.014 C   
ATOM     10  C3  UNL     1       0.815  -3.475   0.898  1.00  0.00     0.014 C   
ENDBRANCH   7   8
BRANCH   7  11
ATOM     11  N1  UNL     1       1.004  -1.268  -1.024  1.00  0.00     0.249 N   
ATOM     12  H9  UNL     1       0.544  -0.944  -0.161  1.00  0.00     0.199 HD  
ATOM     13  H10 UNL     1       1.984  -1.436  -0.785  1.00  0.00     0.199 HD  
BRANCH  11  14
ATOM     14  C5  UNL     1       0.943  -0.137  -2.001  1.00  0.00     0.164 C   
BRANCH  14  15
ATOM     15  C6  UNL     1       1.720   1.045  -1.488  1.00  0.00    -0.002 A   
ATOM     16  C7  UNL     1       1.048   2.112  -0.845  1.00  0.00     0.012 A   
ATOM     17  C11 UNL     1       3.120   1.076  -1.602  1.00  0.00     0.045 A   
ATOM     18  C8  UNL     1       1.758   3.198  -0.323  1.00  0.00     0.037 A   
ATOM     19  C10 UNL     1       3.790   2.161  -1.075  1.00  0.00     0.109 A   
ATOM     20  C9  UNL     1       3.129   3.191  -0.453  1.00  0.00     0.108 A   
ATOM     21  O1  UNL     1       5.136   2.344  -1.096  1.00  0.00    -0.316 OA  
ATOM     22  O2  UNL     1       3.975   4.154  -0.005  1.00  0.00    -0.316 OA  
ATOM     23  C12 UNL     1       5.248   3.626  -0.437  1.00  0.00     0.337 C   
ENDBRANCH  14  15
ENDBRANCH  11  14
ENDBRANCH   7  11
ENDBRANCH   1   7
BRANCH   3  24
ATOM     24  C15 UNL     1      -4.481  -1.467  -0.656  1.00  0.00     0.140 C   
BRANCH  24  25
ATOM     25  C16 UNL     1      -4.534   0.025  -0.315  1.00  0.00     0.077 C   
BRANCH  25  26
ATOM     26  C17 UNL     1      -3.757   0.380   0.934  1.00  0.00     0.044 A   
ATOM     27  C18 UNL     1      -4.412   0.942   2.030  1.00  0.00     0.024 A   
ATOM     28  N3  UNL     1      -2.419   0.153   0.931  1.00  0.00    -0.241 NA  
ATOM     29  C19 UNL     1      -3.676   1.269   3.168  1.00  0.00     0.005 A   
ATOM     30  C21 UNL     1      -1.743   0.477   2.056  1.00  0.00     0.129 A   
ATOM     31  C20 UNL     1      -2.308   1.030   3.188  1.00  0.00     0.041 A   
ATOM     32  CL1 UNL     1      -0.069   0.104   1.982  1.00  0.00    -0.062 Cl  
ENDBRANCH  25  26
ENDBRANCH  24  25
ENDBRANCH   3  24
TORSDOF 8
