REMARK SMILES CC(C)[C@H]([NH2+]Cc1ccc2c(c1)OCO2)c1cn(CCc2n[nH]c3ccccc23)nn1
REMARK SMILES IDX 16 1 17 2 18 3 30 4 31 5 4 7 2 8 1 9 3 10 5 11 6 14 7 15
REMARK SMILES IDX 8 16 12 17 9 18 11 19 10 20 13 21 15 22 14 23 19 24 20 25
REMARK SMILES IDX 21 26 22 27 29 28 23 29 24 30 28 31 25 32 27 33 26 34
REMARK H PARENT 17 6 5 12 5 13 23 35
ROOT
ATOM     1   C13 UNL     1       0.236   1.228   0.910  1.00  0.00     0.127 A   
ATOM     2   C14 UNL     1       0.061   2.156  -0.091  1.00  0.00     0.045 A   
ATOM     3   N2  UNL     1       1.317   2.648  -0.306  1.00  0.00    -0.212 N   
ATOM     4   N5  UNL     1       2.207   2.081   0.529  1.00  0.00    -0.076 NA  
ATOM     5   N6  UNL     1       1.558   1.201   1.274  1.00  0.00    -0.132 NA  
ATOM     6   H18 UNL     1      -0.789   2.462  -0.686  1.00  0.00     0.083 HD  
ENDROOT
BRANCH   1   7
ATOM     7   C4  UNL     1      -0.713   0.239   1.500  1.00  0.00     0.117 C   
BRANCH   7   8
ATOM     8   C2  UNL     1      -1.251   0.622   2.903  1.00  0.00     0.037 C   
ATOM     9   C1  UNL     1      -2.101   1.897   2.845  1.00  0.00     0.014 C   
ATOM     10  C3  UNL     1      -0.175   0.768   3.985  1.00  0.00     0.014 C   
ENDBRANCH   7   8
BRANCH   7  11
ATOM     11  N1  UNL     1      -0.047  -1.118   1.587  1.00  0.00     0.249 N   
ATOM     12  H9  UNL     1      -0.610  -1.755   2.159  1.00  0.00     0.199 HD  
ATOM     13  H10 UNL     1       0.847  -0.967   2.074  1.00  0.00     0.199 HD  
BRANCH  11  14
ATOM     14  C5  UNL     1       0.279  -1.776   0.284  1.00  0.00     0.164 C   
BRANCH  14  15
ATOM     15  C6  UNL     1      -0.942  -2.228  -0.467  1.00  0.00    -0.002 A   
ATOM     16  C7  UNL     1      -1.606  -3.425  -0.108  1.00  0.00     0.012 A   
ATOM     17  C11 UNL     1      -1.449  -1.446  -1.519  1.00  0.00     0.045 A   
ATOM     18  C8  UNL     1      -2.754  -3.841  -0.791  1.00  0.00     0.037 A   
ATOM     19  C10 UNL     1      -2.579  -1.886  -2.175  1.00  0.00     0.109 A   
ATOM     20  C9  UNL     1      -3.215  -3.049  -1.820  1.00  0.00     0.108 A   
ATOM     21  O1  UNL     1      -3.186  -1.255  -3.214  1.00  0.00    -0.316 OA  
ATOM     22  O2  UNL     1      -4.306  -3.297  -2.589  1.00  0.00    -0.316 OA  
ATOM     23  C12 UNL     1      -4.282  -2.162  -3.479  1.00  0.00     0.337 C   
ENDBRANCH  14  15
ENDBRANCH  11  14
ENDBRANCH   7  11
ENDBRANCH   1   7
BRANCH   3  24
ATOM     24  C15 UNL     1       1.752   3.553  -1.349  1.00  0.00     0.140 C   
BRANCH  24  25
ATOM     25  C16 UNL     1       2.608   2.858  -2.405  1.00  0.00     0.080 C   
BRANCH  25  26
ATOM     26  C17 UNL     1       1.907   1.711  -3.061  1.00  0.00     0.069 A   
ATOM     27  N3  UNL     1       0.810   1.930  -3.797  1.00  0.00    -0.188 NA  
ATOM     28  C23 UNL     1       2.223   0.327  -2.982  1.00  0.00     0.020 A   
ATOM     29  N4  UNL     1       0.499   0.714  -4.282  1.00  0.00    -0.238 N   
ATOM     30  C18 UNL     1       1.276  -0.298  -3.784  1.00  0.00     0.057 A   
ATOM     31  C22 UNL     1       3.195  -0.459  -2.334  1.00  0.00     0.012 A   
ATOM     32  C19 UNL     1       1.238  -1.682  -3.983  1.00  0.00     0.026 A   
ATOM     33  C21 UNL     1       3.174  -1.847  -2.518  1.00  0.00     0.001 A   
ATOM     34  C20 UNL     1       2.209  -2.446  -3.328  1.00  0.00     0.002 A   
ATOM     35  H23 UNL     1      -0.273   0.637  -4.936  1.00  0.00     0.176 HD  
ENDBRANCH  25  26
ENDBRANCH  24  25
ENDBRANCH   3  24
TORSDOF 8
