REMARK SMILES Cc1cc([C@H](CO)n2cc([C@@H]([NH2+]Cc3ccc4c(c3)OCO4)C3CCCCC3)nn2)c(C)o1
REMARK SMILES IDX 8 1 9 2 10 3 29 4 30 5 5 7 4 8 2 9 3 10 33 11 31 12 1 13
REMARK SMILES IDX 32 14 6 15 7 16 11 18 12 19 13 22 14 23 15 24 19 25 16 26
REMARK SMILES IDX 18 27 17 28 20 29 22 30 21 31 23 32 24 33 28 34 25 35 27 36
REMARK SMILES IDX 26 37
REMARK H PARENT 9 6 7 17 12 20 12 21
ROOT
ATOM     1   N1  UNL     1      -0.782  -2.238  -1.542  1.00  0.00    -0.202 N   
ATOM     2   C7  UNL     1      -0.858  -1.679  -0.294  1.00  0.00     0.046 A   
ATOM     3   C8  UNL     1      -0.080  -0.548  -0.382  1.00  0.00     0.127 A   
ATOM     4   N3  UNL     1       0.483  -0.486  -1.630  1.00  0.00    -0.132 NA  
ATOM     5   N4  UNL     1       0.060  -1.529  -2.325  1.00  0.00    -0.075 NA  
ATOM     6   H9  UNL     1      -1.460  -2.115   0.493  1.00  0.00     0.083 HD  
ENDROOT
BRANCH   1   7
ATOM     7   C5  UNL     1      -1.482  -3.406  -2.075  1.00  0.00     0.157 C   
BRANCH   7   8
ATOM     8   C4  UNL     1      -2.959  -3.308  -1.783  1.00  0.00     0.005 A   
ATOM     9   C2  UNL     1      -5.032  -3.595  -0.946  1.00  0.00     0.056 A   
ATOM     10  C3  UNL     1      -3.737  -4.052  -0.844  1.00  0.00     0.037 A   
ATOM     11  O4  UNL     1      -5.105  -2.609  -1.877  1.00  0.00    -0.319 OA  
ATOM     12  C24 UNL     1      -3.858  -2.442  -2.390  1.00  0.00     0.061 A   
ATOM     13  C1  UNL     1      -6.296  -3.950  -0.270  1.00  0.00     0.073 C   
ATOM     14  C25 UNL     1      -3.725  -1.402  -3.434  1.00  0.00     0.073 C   
ENDBRANCH   7   8
BRANCH   7  15
ATOM     15  C6  UNL     1      -0.801  -4.714  -1.641  1.00  0.00     0.186 C   
BRANCH  15  16
ATOM     16  O1  UNL     1      -0.733  -4.865  -0.221  1.00  0.00    -0.394 OA  
ATOM     17  H8  UNL     1      -0.405  -5.767  -0.049  1.00  0.00     0.210 HD  
ENDBRANCH  15  16
ENDBRANCH   7  15
ENDBRANCH   1   7
BRANCH   3  18
ATOM     18  C9  UNL     1       0.249   0.500   0.634  1.00  0.00     0.117 C   
BRANCH  18  19
ATOM     19  N2  UNL     1       1.715   0.845   0.503  1.00  0.00     0.249 N   
ATOM     20  H11 UNL     1       1.960   1.709   0.991  1.00  0.00     0.199 HD  
ATOM     21  H12 UNL     1       1.887   1.020  -0.499  1.00  0.00     0.199 HD  
BRANCH  19  22
ATOM     22  C10 UNL     1       2.665  -0.218   0.938  1.00  0.00     0.164 C   
BRANCH  22  23
ATOM     23  C11 UNL     1       4.082   0.243   0.747  1.00  0.00    -0.002 A   
ATOM     24  C12 UNL     1       4.789   0.855   1.809  1.00  0.00     0.012 A   
ATOM     25  C16 UNL     1       4.694   0.122  -0.513  1.00  0.00     0.045 A   
ATOM     26  C13 UNL     1       6.091   1.333   1.624  1.00  0.00     0.037 A   
ATOM     27  C15 UNL     1       5.978   0.604  -0.661  1.00  0.00     0.109 A   
ATOM     28  C14 UNL     1       6.657   1.193   0.377  1.00  0.00     0.108 A   
ATOM     29  O2  UNL     1       6.709   0.568  -1.806  1.00  0.00    -0.316 OA  
ATOM     30  O3  UNL     1       7.902   1.600   0.017  1.00  0.00    -0.316 OA  
ATOM     31  C17 UNL     1       7.941   1.182  -1.364  1.00  0.00     0.337 C   
ENDBRANCH  22  23
ENDBRANCH  19  22
ENDBRANCH  18  19
BRANCH  18  32
ATOM     32  C18 UNL     1      -0.597   1.797   0.446  1.00  0.00     0.043 C   
ATOM     33  C19 UNL     1      -2.120   1.529   0.469  1.00  0.00     0.010 C   
ATOM     34  C23 UNL     1      -0.304   2.895   1.494  1.00  0.00     0.010 C   
ATOM     35  C20 UNL     1      -2.627   1.127   1.853  1.00  0.00     0.001 C   
ATOM     36  C22 UNL     1      -0.785   2.520   2.895  1.00  0.00     0.001 C   
ATOM     37  C21 UNL     1      -2.271   2.172   2.906  1.00  0.00     0.000 C   
ENDBRANCH  18  32
ENDBRANCH   3  18
TORSDOF 9
