REMARK SMILES Cc1cc([C@@H](CO)n2cc([C@@H]([NH2+]Cc3ccc4c(c3)OCO4)C3CCCCC3)nn2)c(C)o1
REMARK SMILES IDX 8 1 9 2 10 3 29 4 30 5 5 7 4 8 2 9 3 10 33 11 31 12 1 13
REMARK SMILES IDX 32 14 6 15 7 16 11 18 12 19 13 22 14 23 15 24 19 25 16 26
REMARK SMILES IDX 18 27 17 28 20 29 22 30 21 31 23 32 24 33 28 34 25 35 27 36
REMARK SMILES IDX 26 37
REMARK H PARENT 9 6 7 17 12 20 12 21
ROOT
ATOM     1   N1  UNL     1       1.033   0.169  -0.084  1.00  0.00    -0.202 N   
ATOM     2   C7  UNL     1       0.477  -0.663   0.854  1.00  0.00     0.046 A   
ATOM     3   C8  UNL     1      -0.640  -1.167   0.230  1.00  0.00     0.127 A   
ATOM     4   N3  UNL     1      -0.756  -0.608  -1.017  1.00  0.00    -0.132 NA  
ATOM     5   N4  UNL     1       0.271   0.205  -1.199  1.00  0.00    -0.075 NA  
ATOM     6   H9  UNL     1       0.917  -0.819   1.827  1.00  0.00     0.083 HD  
ENDROOT
BRANCH   1   7
ATOM     7   C5  UNL     1       2.247   0.981  -0.000  1.00  0.00     0.157 C   
BRANCH   7   8
ATOM     8   C4  UNL     1       1.952   2.227   0.788  1.00  0.00     0.005 A   
ATOM     9   C2  UNL     1       1.667   3.727   2.442  1.00  0.00     0.056 A   
ATOM     10  C3  UNL     1       2.048   2.426   2.199  1.00  0.00     0.037 A   
ATOM     11  O4  UNL     1       1.344   4.344   1.277  1.00  0.00    -0.319 OA  
ATOM     12  C24 UNL     1       1.505   3.436   0.278  1.00  0.00     0.061 A   
ATOM     13  C1  UNL     1       1.547   4.542   3.668  1.00  0.00     0.073 C   
ATOM     14  C25 UNL     1       1.166   3.904  -1.083  1.00  0.00     0.073 C   
ENDBRANCH   7   8
BRANCH   7  15
ATOM     15  C6  UNL     1       3.453   0.188   0.536  1.00  0.00     0.186 C   
BRANCH  15  16
ATOM     16  O1  UNL     1       3.796  -0.899  -0.321  1.00  0.00    -0.394 OA  
ATOM     17  H8  UNL     1       4.402  -0.568  -1.010  1.00  0.00     0.210 HD  
ENDBRANCH  15  16
ENDBRANCH   7  15
ENDBRANCH   1   7
BRANCH   3  18
ATOM     18  C9  UNL     1      -1.682  -2.132   0.693  1.00  0.00     0.117 C   
BRANCH  18  19
ATOM     19  N2  UNL     1      -3.016  -1.767   0.083  1.00  0.00     0.249 N   
ATOM     20  H11 UNL     1      -2.799  -1.203  -0.754  1.00  0.00     0.199 HD  
ATOM     21  H12 UNL     1      -3.502  -2.596  -0.264  1.00  0.00     0.199 HD  
BRANCH  19  22
ATOM     22  C10 UNL     1      -3.948  -0.993   0.948  1.00  0.00     0.164 C   
BRANCH  22  23
ATOM     23  C11 UNL     1      -3.417   0.332   1.419  1.00  0.00    -0.002 A   
ATOM     24  C12 UNL     1      -3.083   0.520   2.783  1.00  0.00     0.012 A   
ATOM     25  C16 UNL     1      -3.251   1.396   0.517  1.00  0.00     0.045 A   
ATOM     26  C13 UNL     1      -2.597   1.748   3.245  1.00  0.00     0.037 A   
ATOM     27  C15 UNL     1      -2.774   2.596   1.007  1.00  0.00     0.109 A   
ATOM     28  C14 UNL     1      -2.458   2.768   2.332  1.00  0.00     0.108 A   
ATOM     29  O2  UNL     1      -2.580   3.726   0.278  1.00  0.00    -0.316 OA  
ATOM     30  O3  UNL     1      -2.031   4.029   2.607  1.00  0.00    -0.316 OA  
ATOM     31  C17 UNL     1      -2.130   4.640   1.302  1.00  0.00     0.337 C   
ENDBRANCH  22  23
ENDBRANCH  19  22
ENDBRANCH  18  19
BRANCH  18  32
ATOM     32  C18 UNL     1      -1.304  -3.601   0.362  1.00  0.00     0.043 C   
ATOM     33  C19 UNL     1      -1.240  -3.916  -1.147  1.00  0.00     0.010 C   
ATOM     34  C23 UNL     1      -2.234  -4.599   1.080  1.00  0.00     0.010 C   
ATOM     35  C20 UNL     1      -0.841  -5.368  -1.405  1.00  0.00     0.001 C   
ATOM     36  C22 UNL     1      -1.826  -6.046   0.812  1.00  0.00     0.001 C   
ATOM     37  C21 UNL     1      -1.762  -6.344  -0.682  1.00  0.00     0.000 C   
ENDBRANCH  18  32
ENDBRANCH   3  18
TORSDOF 9
