REMARK SMILES Fc1cccc2c1O[C@@H](Cn1cc([C@@H]([NH2+]Cc3ccc4c(c3)OCO4)C3CCCCC3)nn1)C2
REMARK SMILES IDX 11 1 12 2 13 3 32 4 33 5 10 7 9 8 2 9 3 10 7 11 4 12 6 13
REMARK SMILES IDX 8 14 5 15 34 16 1 17 14 18 15 19 16 22 17 23 18 24 22 25
REMARK SMILES IDX 19 26 21 27 20 28 23 29 25 30 24 31 26 32 27 33 31 34 28 35
REMARK SMILES IDX 30 36 29 37
REMARK H PARENT 12 6 15 20 15 21
ROOT
ATOM     1   N1  UNL     1       0.524  -1.489  -2.720  1.00  0.00    -0.210 N   
ATOM     2   C9  UNL     1       0.894  -1.586  -1.408  1.00  0.00     0.045 A   
ATOM     3   C10 UNL     1      -0.285  -1.418  -0.719  1.00  0.00     0.127 A   
ATOM     4   N3  UNL     1      -1.312  -1.258  -1.614  1.00  0.00    -0.132 NA  
ATOM     5   N4  UNL     1      -0.804  -1.311  -2.835  1.00  0.00    -0.076 NA  
ATOM     6   H7  UNL     1       1.926  -1.706  -1.105  1.00  0.00     0.083 HD  
ENDROOT
BRANCH   1   7
ATOM     7   C8  UNL     1       1.378  -1.498  -3.889  1.00  0.00     0.166 C   
BRANCH   7   8
ATOM     8   C7  UNL     1       1.906  -0.111  -4.277  1.00  0.00     0.149 C   
ATOM     9   C1  UNL     1       2.226   2.384  -1.717  1.00  0.00     0.153 A   
ATOM     10  C2  UNL     1       1.440   3.509  -1.479  1.00  0.00     0.042 A   
ATOM     11  C6  UNL     1       1.944   1.583  -2.806  1.00  0.00     0.114 A   
ATOM     12  C3  UNL     1       0.371   3.809  -2.337  1.00  0.00     0.004 A   
ATOM     13  C5  UNL     1       0.885   1.873  -3.648  1.00  0.00    -0.012 A   
ATOM     14  O1  UNL     1       2.642   0.458  -3.156  1.00  0.00    -0.337 OA  
ATOM     15  C4  UNL     1       0.086   2.985  -3.431  1.00  0.00     0.007 A   
ATOM     16  C26 UNL     1       0.830   0.884  -4.749  1.00  0.00     0.072 C   
ATOM     17  F1  UNL     1       3.215   2.072  -0.870  1.00  0.00    -0.204 F   
ENDBRANCH   7   8
ENDBRANCH   1   7
BRANCH   3  18
ATOM     18  C11 UNL     1      -0.550  -1.268   0.747  1.00  0.00     0.117 C   
BRANCH  18  19
ATOM     19  N2  UNL     1      -1.401  -0.035   0.950  1.00  0.00     0.249 N   
ATOM     20  H9  UNL     1      -2.239  -0.147   0.362  1.00  0.00     0.199 HD  
ATOM     21  H10 UNL     1      -1.725   0.054   1.915  1.00  0.00     0.199 HD  
BRANCH  19  22
ATOM     22  C12 UNL     1      -0.750   1.251   0.561  1.00  0.00     0.164 C   
BRANCH  22  23
ATOM     23  C13 UNL     1      -1.688   2.405   0.773  1.00  0.00    -0.002 A   
ATOM     24  C14 UNL     1      -2.638   2.736  -0.223  1.00  0.00     0.012 A   
ATOM     25  C18 UNL     1      -1.657   3.137   1.971  1.00  0.00     0.045 A   
ATOM     26  C15 UNL     1      -3.539   3.789  -0.036  1.00  0.00     0.037 A   
ATOM     27  C17 UNL     1      -2.558   4.170   2.123  1.00  0.00     0.109 A   
ATOM     28  C16 UNL     1      -3.472   4.488   1.149  1.00  0.00     0.108 A   
ATOM     29  O2  UNL     1      -2.659   4.976   3.212  1.00  0.00    -0.316 OA  
ATOM     30  O3  UNL     1      -4.262   5.535   1.501  1.00  0.00    -0.316 OA  
ATOM     31  C19 UNL     1      -3.731   5.856   2.804  1.00  0.00     0.337 C   
ENDBRANCH  22  23
ENDBRANCH  19  22
ENDBRANCH  18  19
BRANCH  18  32
ATOM     32  C20 UNL     1      -1.282  -2.509   1.343  1.00  0.00     0.043 C   
ATOM     33  C21 UNL     1      -1.634  -2.380   2.841  1.00  0.00     0.010 C   
ATOM     34  C25 UNL     1      -0.467  -3.811   1.163  1.00  0.00     0.010 C   
ATOM     35  C22 UNL     1      -0.398  -2.388   3.739  1.00  0.00     0.001 C   
ATOM     36  C24 UNL     1       0.784  -3.850   2.039  1.00  0.00     0.001 C   
ATOM     37  C23 UNL     1       0.449  -3.638   3.512  1.00  0.00     0.000 C   
ENDBRANCH  18  32
ENDBRANCH   3  18
TORSDOF 7
