REMARK SMILES Cc1cc([C@@H](CO)n2cc([C@H](CC(C)C)[NH2+]Cc3ccc4c(c3)OCO4)nn2)c(C)s1
REMARK SMILES IDX 8 1 9 2 10 3 27 4 28 5 5 7 4 8 2 9 3 10 31 11 29 12 1 13
REMARK SMILES IDX 30 14 6 15 7 16 11 18 12 19 13 20 14 21 15 22 16 23 17 26
REMARK SMILES IDX 18 27 19 28 23 29 20 30 22 31 21 32 24 33 26 34 25 35
REMARK H PARENT 9 6 7 17 16 24 16 25
ROOT
ATOM     1   N1  UNL     1       0.813   0.440   2.280  1.00  0.00    -0.202 N   
ATOM     2   C7  UNL     1      -0.501   0.457   1.889  1.00  0.00     0.046 A   
ATOM     3   C8  UNL     1      -0.464   0.095   0.562  1.00  0.00     0.127 A   
ATOM     4   N3  UNL     1       0.839  -0.097   0.185  1.00  0.00    -0.132 NA  
ATOM     5   N4  UNL     1       1.610   0.118   1.237  1.00  0.00    -0.075 NA  
ATOM     6   H9  UNL     1      -1.301   0.705   2.573  1.00  0.00     0.083 HD  
ENDROOT
BRANCH   1   7
ATOM     7   C5  UNL     1       1.350   0.710   3.616  1.00  0.00     0.156 C   
BRANCH   7   8
ATOM     8   C4  UNL     1       1.608  -0.596   4.343  1.00  0.00    -0.013 A   
ATOM     9   C2  UNL     1       2.609  -2.685   4.754  1.00  0.00    -0.013 A   
ATOM     10  C3  UNL     1       2.565  -1.588   3.923  1.00  0.00     0.017 A   
ATOM     11  S1  UNL     1       1.511  -2.532   6.047  1.00  0.00    -0.099 S   
ATOM     12  C22 UNL     1       0.971  -1.000   5.510  1.00  0.00    -0.008 A   
ATOM     13  C1  UNL     1       3.462  -3.902   4.642  1.00  0.00     0.052 C   
ATOM     14  C23 UNL     1      -0.073  -0.280   6.304  1.00  0.00     0.053 C   
ENDBRANCH   7   8
BRANCH   7  15
ATOM     15  C6  UNL     1       2.576   1.636   3.588  1.00  0.00     0.185 C   
BRANCH  15  16
ATOM     16  O1  UNL     1       2.181   2.966   3.239  1.00  0.00    -0.394 OA  
ATOM     17  H8  UNL     1       2.985   3.518   3.274  1.00  0.00     0.210 HD  
ENDBRANCH  15  16
ENDBRANCH   7  15
ENDBRANCH   1   7
BRANCH   3  18
ATOM     18  C9  UNL     1      -1.552  -0.048  -0.453  1.00  0.00     0.114 C   
BRANCH  18  19
ATOM     19  C10 UNL     1      -2.093  -1.487  -0.549  1.00  0.00     0.064 C   
BRANCH  19  20
ATOM     20  C11 UNL     1      -2.784  -2.020   0.724  1.00  0.00    -0.012 C   
ATOM     21  C12 UNL     1      -3.204  -3.478   0.511  1.00  0.00     0.007 C   
ATOM     22  C13 UNL     1      -4.004  -1.186   1.117  1.00  0.00     0.007 C   
ENDBRANCH  19  20
ENDBRANCH  18  19
BRANCH  18  23
ATOM     23  N2  UNL     1      -0.993   0.338  -1.802  1.00  0.00     0.249 N   
ATOM     24  H20 UNL     1      -0.423  -0.439  -2.160  1.00  0.00     0.199 HD  
ATOM     25  H21 UNL     1      -0.294   1.079  -1.644  1.00  0.00     0.199 HD  
BRANCH  23  26
ATOM     26  C14 UNL     1      -1.956   0.804  -2.825  1.00  0.00     0.164 C   
BRANCH  26  27
ATOM     27  C15 UNL     1      -1.247   1.150  -4.103  1.00  0.00    -0.002 A   
ATOM     28  C16 UNL     1      -0.739   2.454  -4.310  1.00  0.00     0.012 A   
ATOM     29  C20 UNL     1      -1.036   0.162  -5.081  1.00  0.00     0.045 A   
ATOM     30  C17 UNL     1      -0.040   2.776  -5.479  1.00  0.00     0.037 A   
ATOM     31  C19 UNL     1      -0.344   0.513  -6.222  1.00  0.00     0.109 A   
ATOM     32  C18 UNL     1       0.140   1.783  -6.415  1.00  0.00     0.108 A   
ATOM     33  O2  UNL     1      -0.058  -0.316  -7.259  1.00  0.00    -0.316 OA  
ATOM     34  O3  UNL     1       0.792   1.913  -7.599  1.00  0.00    -0.316 OA  
ATOM     35  C21 UNL     1       0.646   0.584  -8.144  1.00  0.00     0.337 C   
ENDBRANCH  26  27
ENDBRANCH  23  26
ENDBRANCH  18  23
ENDBRANCH   3  18
TORSDOF 10
