REMARK SMILES Cc1cc([C@H](CO)n2cc([C@H](CC(C)C)[NH2+]Cc3ccc4c(c3)OCO4)nn2)c(C)s1
REMARK SMILES IDX 8 1 9 2 10 3 27 4 28 5 5 7 4 8 2 9 3 10 31 11 29 12 1 13
REMARK SMILES IDX 30 14 6 15 7 16 11 18 12 19 13 20 14 21 15 22 16 23 17 26
REMARK SMILES IDX 18 27 19 28 23 29 20 30 22 31 21 32 24 33 26 34 25 35
REMARK H PARENT 9 6 7 17 16 24 16 25
ROOT
ATOM     1   N1  UNL     1       0.492  -1.562  -1.160  1.00  0.00    -0.202 N   
ATOM     2   C7  UNL     1      -0.309  -0.578  -0.644  1.00  0.00     0.046 A   
ATOM     3   C8  UNL     1      -0.667  -1.048   0.597  1.00  0.00     0.127 A   
ATOM     4   N3  UNL     1      -0.141  -2.302   0.772  1.00  0.00    -0.132 NA  
ATOM     5   N4  UNL     1       0.550  -2.614  -0.312  1.00  0.00    -0.075 NA  
ATOM     6   H9  UNL     1      -0.511   0.339  -1.182  1.00  0.00     0.083 HD  
ENDROOT
BRANCH   1   7
ATOM     7   C5  UNL     1       1.254  -1.572  -2.407  1.00  0.00     0.156 C   
BRANCH   7   8
ATOM     8   C4  UNL     1       2.110  -0.315  -2.509  1.00  0.00    -0.013 A   
ATOM     9   C2  UNL     1       2.691   1.887  -3.104  1.00  0.00    -0.013 A   
ATOM     10  C3  UNL     1       1.738   0.896  -3.192  1.00  0.00     0.017 A   
ATOM     11  S1  UNL     1       4.046   1.369  -2.214  1.00  0.00    -0.099 S   
ATOM     12  C22 UNL     1       3.367  -0.174  -1.928  1.00  0.00    -0.008 A   
ATOM     13  C1  UNL     1       2.659   3.260  -3.681  1.00  0.00     0.052 C   
ATOM     14  C23 UNL     1       4.140  -1.171  -1.121  1.00  0.00     0.053 C   
ENDBRANCH   7   8
BRANCH   7  15
ATOM     15  C6  UNL     1       0.360  -1.873  -3.623  1.00  0.00     0.185 C   
BRANCH  15  16
ATOM     16  O1  UNL     1      -0.738  -0.969  -3.752  1.00  0.00    -0.394 OA  
ATOM     17  H8  UNL     1      -1.164  -1.160  -4.609  1.00  0.00     0.210 HD  
ENDBRANCH  15  16
ENDBRANCH   7  15
ENDBRANCH   1   7
BRANCH   3  18
ATOM     18  C9  UNL     1      -1.506  -0.436   1.665  1.00  0.00     0.114 C   
BRANCH  18  19
ATOM     19  C10 UNL     1      -0.659   0.241   2.763  1.00  0.00     0.064 C   
BRANCH  19  20
ATOM     20  C11 UNL     1       0.215   1.422   2.288  1.00  0.00    -0.012 C   
ATOM     21  C12 UNL     1       1.041   1.958   3.462  1.00  0.00     0.007 C   
ATOM     22  C13 UNL     1      -0.614   2.555   1.682  1.00  0.00     0.007 C   
ENDBRANCH  19  20
ENDBRANCH  18  19
BRANCH  18  23
ATOM     23  N2  UNL     1      -2.339  -1.501   2.353  1.00  0.00     0.249 N   
ATOM     24  H20 UNL     1      -2.761  -1.119   3.204  1.00  0.00     0.199 HD  
ATOM     25  H21 UNL     1      -1.679  -2.238   2.639  1.00  0.00     0.199 HD  
BRANCH  23  26
ATOM     26  C14 UNL     1      -3.399  -2.150   1.527  1.00  0.00     0.164 C   
BRANCH  26  27
ATOM     27  C15 UNL     1      -4.493  -1.199   1.125  1.00  0.00    -0.002 A   
ATOM     28  C16 UNL     1      -5.444  -0.755   2.076  1.00  0.00     0.012 A   
ATOM     29  C20 UNL     1      -4.556  -0.718  -0.195  1.00  0.00     0.045 A   
ATOM     30  C17 UNL     1      -6.442   0.158   1.720  1.00  0.00     0.037 A   
ATOM     31  C19 UNL     1      -5.553   0.181  -0.512  1.00  0.00     0.109 A   
ATOM     32  C18 UNL     1      -6.468   0.609   0.418  1.00  0.00     0.108 A   
ATOM     33  O2  UNL     1      -5.752   0.743  -1.734  1.00  0.00    -0.316 OA  
ATOM     34  O3  UNL     1      -7.360   1.493  -0.101  1.00  0.00    -0.316 OA  
ATOM     35  C21 UNL     1      -6.927   1.547  -1.477  1.00  0.00     0.337 C   
ENDBRANCH  26  27
ENDBRANCH  23  26
ENDBRANCH  18  23
ENDBRANCH   3  18
TORSDOF 10
