REMARK SMILES CN(C)c1ncccc1CCn1cc([C@@H]([NH2+]Cc2ccc3c(c2)OCO3)C(C)(C)C)nn1
REMARK SMILES IDX 12 1 13 2 14 3 31 4 32 5 11 7 10 8 9 9 4 10 5 11 6 12 8 13
REMARK SMILES IDX 7 14 2 15 1 16 3 17 15 18 16 19 17 22 18 23 19 24 23 25
REMARK SMILES IDX 20 26 22 27 21 28 24 29 26 30 25 31 27 32 28 33 29 34 30 35
REMARK H PARENT 13 6 16 20 16 21
ROOT
ATOM     1   N3  UNL     1      -0.795  -2.537  -0.058  1.00  0.00    -0.212 N   
ATOM     2   C10 UNL     1      -1.571  -1.440   0.191  1.00  0.00     0.045 A   
ATOM     3   C11 UNL     1      -1.208  -0.553  -0.798  1.00  0.00     0.127 A   
ATOM     4   N5  UNL     1      -0.335  -1.167  -1.659  1.00  0.00    -0.132 NA  
ATOM     5   N6  UNL     1      -0.092  -2.382  -1.197  1.00  0.00    -0.076 NA  
ATOM     6   H14 UNL     1      -2.181  -1.349   1.079  1.00  0.00     0.083 HD  
ENDROOT
BRANCH   1   7
ATOM     7   C9  UNL     1      -0.534  -3.666   0.811  1.00  0.00     0.139 C   
BRANCH   7   8
ATOM     8   C8  UNL     1      -0.142  -3.266   2.240  1.00  0.00     0.060 C   
BRANCH   8   9
ATOM     9   C7  UNL     1       0.984  -2.250   2.316  1.00  0.00    -0.006 A   
ATOM     10  C3  UNL     1       0.809  -0.949   2.832  1.00  0.00     0.123 A   
ATOM     11  N2  UNL     1       1.784  -0.013   2.724  1.00  0.00    -0.241 NA  
ATOM     12  C4  UNL     1       2.988  -0.388   2.238  1.00  0.00     0.113 A   
ATOM     13  C6  UNL     1       2.243  -2.593   1.797  1.00  0.00     0.009 A   
ATOM     14  C5  UNL     1       3.265  -1.655   1.772  1.00  0.00     0.021 A   
BRANCH  10  15
ATOM     15  N1  UNL     1      -0.403  -0.591   3.476  1.00  0.00    -0.322 N   
ATOM     16  C1  UNL     1      -0.607   0.861   3.531  1.00  0.00     0.131 C   
ATOM     17  C2  UNL     1      -0.412  -1.181   4.832  1.00  0.00     0.131 C   
ENDBRANCH  10  15
ENDBRANCH   8   9
ENDBRANCH   7   8
ENDBRANCH   1   7
BRANCH   3  18
ATOM     18  C12 UNL     1      -1.463   0.916  -0.932  1.00  0.00     0.120 C   
BRANCH  18  19
ATOM     19  N4  UNL     1      -0.164   1.584  -1.325  1.00  0.00     0.250 N   
ATOM     20  H16 UNL     1       0.229   1.025  -2.097  1.00  0.00     0.199 HD  
ATOM     21  H17 UNL     1      -0.295   2.531  -1.686  1.00  0.00     0.199 HD  
BRANCH  19  22
ATOM     22  C13 UNL     1       0.876   1.609  -0.252  1.00  0.00     0.164 C   
BRANCH  22  23
ATOM     23  C14 UNL     1       2.177   2.135  -0.791  1.00  0.00    -0.002 A   
ATOM     24  C15 UNL     1       3.157   1.234  -1.275  1.00  0.00     0.012 A   
ATOM     25  C19 UNL     1       2.410   3.519  -0.862  1.00  0.00     0.045 A   
ATOM     26  C16 UNL     1       4.364   1.702  -1.806  1.00  0.00     0.037 A   
ATOM     27  C18 UNL     1       3.608   3.946  -1.396  1.00  0.00     0.109 A   
ATOM     28  C17 UNL     1       4.560   3.065  -1.849  1.00  0.00     0.108 A   
ATOM     29  O1  UNL     1       3.987   5.244  -1.544  1.00  0.00    -0.316 OA  
ATOM     30  O2  UNL     1       5.662   3.696  -2.331  1.00  0.00    -0.316 OA  
ATOM     31  C20 UNL     1       5.307   5.079  -2.112  1.00  0.00     0.337 C   
ENDBRANCH  22  23
ENDBRANCH  19  22
ENDBRANCH  18  19
BRANCH  18  32
ATOM     32  C21 UNL     1      -2.606   1.291  -1.934  1.00  0.00     0.010 C   
ATOM     33  C22 UNL     1      -3.918   0.581  -1.525  1.00  0.00     0.017 C   
ATOM     34  C23 UNL     1      -2.278   0.907  -3.389  1.00  0.00     0.017 C   
ATOM     35  C24 UNL     1      -2.881   2.812  -1.884  1.00  0.00     0.017 C   
ENDBRANCH  18  32
ENDBRANCH   3  18
TORSDOF 9
