REMARK SMILES Oc1ccccc1Cn1cc([C@@H]([NH2+]Cc2ccc3c(c2)OCO3)C2CCCC2)nn1
REMARK SMILES IDX 9 1 10 2 11 3 29 4 30 5 8 7 7 8 2 9 3 10 4 11 6 12 5 13 1 14
REMARK SMILES IDX 12 16 13 17 14 20 15 21 16 22 20 23 17 24 19 25 18 26 21 27
REMARK SMILES IDX 23 28 22 29 24 30 25 31 28 32 26 33 27 34
REMARK H PARENT 10 6 1 15 13 18 13 19
ROOT
ATOM     1   N1  UNL     1      -0.255  -2.623  -0.475  1.00  0.00    -0.208 N   
ATOM     2   C8  UNL     1      -0.358  -1.505  -1.258  1.00  0.00     0.046 A   
ATOM     3   C9  UNL     1       0.394  -0.562  -0.594  1.00  0.00     0.127 A   
ATOM     4   N3  UNL     1       0.921  -1.124   0.541  1.00  0.00    -0.132 NA  
ATOM     5   N4  UNL     1       0.514  -2.380   0.607  1.00  0.00    -0.076 NA  
ATOM     6   H8  UNL     1      -0.943  -1.494  -2.167  1.00  0.00     0.083 HD  
ENDROOT
BRANCH   1   7
ATOM     7   C7  UNL     1      -0.832  -3.936  -0.699  1.00  0.00     0.172 C   
BRANCH   7   8
ATOM     8   C6  UNL     1      -2.281  -3.967  -0.292  1.00  0.00     0.001 A   
ATOM     9   C1  UNL     1      -3.305  -3.718  -1.215  1.00  0.00     0.076 A   
ATOM     10  C2  UNL     1      -4.645  -3.752  -0.832  1.00  0.00     0.033 A   
ATOM     11  C3  UNL     1      -4.976  -4.031   0.494  1.00  0.00     0.003 A   
ATOM     12  C5  UNL     1      -2.631  -4.235   1.041  1.00  0.00     0.008 A   
ATOM     13  C4  UNL     1      -3.971  -4.267   1.430  1.00  0.00     0.001 A   
BRANCH   9  14
ATOM     14  O1  UNL     1      -2.970  -3.431  -2.508  1.00  0.00    -0.361 OA  
ATOM     15  H1  UNL     1      -3.779  -3.483  -3.050  1.00  0.00     0.218 HD  
ENDBRANCH   9  14
ENDBRANCH   7   8
ENDBRANCH   1   7
BRANCH   3  16
ATOM     16  C10 UNL     1       0.651   0.880  -0.882  1.00  0.00     0.117 C   
BRANCH  16  17
ATOM     17  N2  UNL     1       0.744   1.638   0.421  1.00  0.00     0.249 N   
ATOM     18  H10 UNL     1       1.358   1.083   1.036  1.00  0.00     0.199 HD  
ATOM     19  H11 UNL     1       1.197   2.549   0.308  1.00  0.00     0.199 HD  
BRANCH  17  20
ATOM     20  C11 UNL     1      -0.546   1.825   1.142  1.00  0.00     0.164 C   
BRANCH  20  21
ATOM     21  C12 UNL     1      -0.311   2.518   2.454  1.00  0.00    -0.002 A   
ATOM     22  C13 UNL     1      -0.411   3.926   2.554  1.00  0.00     0.012 A   
ATOM     23  C17 UNL     1       0.069   1.768   3.581  1.00  0.00     0.045 A   
ATOM     24  C14 UNL     1      -0.145   4.581   3.762  1.00  0.00     0.037 A   
ATOM     25  C16 UNL     1       0.323   2.445   4.756  1.00  0.00     0.109 A   
ATOM     26  C15 UNL     1       0.221   3.811   4.845  1.00  0.00     0.108 A   
ATOM     27  O2  UNL     1       0.698   1.874   5.931  1.00  0.00    -0.316 OA  
ATOM     28  O3  UNL     1       0.518   4.274   6.087  1.00  0.00    -0.316 OA  
ATOM     29  C18 UNL     1       0.799   3.039   6.781  1.00  0.00     0.337 C   
ENDBRANCH  20  21
ENDBRANCH  17  20
ENDBRANCH  16  17
BRANCH  16  30
ATOM     30  C19 UNL     1       1.964   1.092  -1.661  1.00  0.00     0.043 C   
ATOM     31  C20 UNL     1       1.972   0.429  -3.042  1.00  0.00     0.010 C   
ATOM     32  C23 UNL     1       2.272   2.562  -1.988  1.00  0.00     0.010 C   
ATOM     33  C21 UNL     1       3.145   1.100  -3.737  1.00  0.00     0.001 C   
ATOM     34  C22 UNL     1       3.062   2.556  -3.298  1.00  0.00     0.001 C   
ENDBRANCH  16  30
ENDBRANCH   3  16
TORSDOF 8
