REMARK SMILES Cc1cc(C)c(-n2cc([C@H](CC(C)C)[NH2+]Cc3ccc4c(c3)OCO4)nn2)cc1N
REMARK SMILES IDX 7 1 8 2 9 3 26 4 27 5 6 6 2 7 3 8 29 9 4 10 28 11 1 12 5 13
REMARK SMILES IDX 30 14 10 17 11 18 12 19 13 20 14 21 15 22 16 25 17 26 18 27
REMARK SMILES IDX 22 28 19 29 21 30 20 31 23 32 25 33 24 34
REMARK H PARENT 30 15 30 16 15 23 15 24
ROOT
ATOM     1   N1  UNL     1       1.082  -2.210  -0.739  1.00  0.00    -0.180 N   
ATOM     2   C7  UNL     1       0.016  -1.927   0.105  1.00  0.00     0.135 A   
ATOM     3   C8  UNL     1      -0.330  -0.622  -0.161  1.00  0.00     0.127 A   
ATOM     4   N3  UNL     1       0.507  -0.130  -1.117  1.00  0.00    -0.131 NA  
ATOM     5   N4  UNL     1       1.364  -1.082  -1.440  1.00  0.00    -0.071 NA  
ENDROOT
BRANCH   1   6
ATOM     6   C6  UNL     1       1.800  -3.434  -0.894  1.00  0.00     0.062 A   
ATOM     7   C2  UNL     1       3.064  -5.953  -1.167  1.00  0.00    -0.030 A   
ATOM     8   C3  UNL     1       3.514  -4.832  -1.882  1.00  0.00     0.010 A   
ATOM     9   C23 UNL     1       2.016  -5.804  -0.254  1.00  0.00     0.028 A   
ATOM     10  C4  UNL     1       2.911  -3.565  -1.755  1.00  0.00    -0.027 A   
ATOM     11  C22 UNL     1       1.366  -4.564  -0.169  1.00  0.00     0.049 A   
ATOM     12  C1  UNL     1       3.741  -7.279  -1.388  1.00  0.00     0.046 C   
ATOM     13  C5  UNL     1       3.507  -2.451  -2.576  1.00  0.00     0.046 C   
BRANCH   9  14
ATOM     14  N5  UNL     1       1.455  -6.905   0.408  1.00  0.00    -0.358 N   
ATOM     15  H29 UNL     1       0.965  -6.683   1.267  1.00  0.00     0.143 HD  
ATOM     16  H30 UNL     1       2.094  -7.684   0.535  1.00  0.00     0.143 HD  
ENDBRANCH   9  14
ENDBRANCH   1   6
BRANCH   3  17
ATOM     17  C9  UNL     1      -1.395   0.260   0.414  1.00  0.00     0.114 C   
BRANCH  17  18
ATOM     18  C10 UNL     1      -2.753  -0.018  -0.262  1.00  0.00     0.064 C   
BRANCH  18  19
ATOM     19  C11 UNL     1      -3.963   0.784   0.264  1.00  0.00    -0.012 C   
ATOM     20  C12 UNL     1      -5.229   0.348  -0.479  1.00  0.00     0.007 C   
ATOM     21  C13 UNL     1      -4.166   0.624   1.770  1.00  0.00     0.007 C   
ENDBRANCH  18  19
ENDBRANCH  17  18
BRANCH  17  22
ATOM     22  N2  UNL     1      -1.032   1.706   0.218  1.00  0.00     0.249 N   
ATOM     23  H19 UNL     1      -1.841   2.328   0.307  1.00  0.00     0.199 HD  
ATOM     24  H20 UNL     1      -0.703   1.802  -0.756  1.00  0.00     0.199 HD  
BRANCH  22  25
ATOM     25  C14 UNL     1       0.050   2.222   1.104  1.00  0.00     0.164 C   
BRANCH  25  26
ATOM     26  C15 UNL     1       0.414   3.625   0.710  1.00  0.00    -0.002 A   
ATOM     27  C16 UNL     1       1.355   3.848  -0.324  1.00  0.00     0.012 A   
ATOM     28  C20 UNL     1      -0.226   4.721   1.312  1.00  0.00     0.045 A   
ATOM     29  C17 UNL     1       1.661   5.144  -0.750  1.00  0.00     0.037 A   
ATOM     30  C19 UNL     1       0.098   5.986   0.866  1.00  0.00     0.109 A   
ATOM     31  C18 UNL     1       1.012   6.192  -0.137  1.00  0.00     0.108 A   
ATOM     32  O1  UNL     1      -0.431   7.148   1.333  1.00  0.00    -0.316 OA  
ATOM     33  O2  UNL     1       1.174   7.509  -0.428  1.00  0.00    -0.316 OA  
ATOM     34  C21 UNL     1       0.272   8.116   0.521  1.00  0.00     0.337 C   
ENDBRANCH  25  26
ENDBRANCH  22  25
ENDBRANCH  17  22
ENDBRANCH   3  17
TORSDOF 8
