REMARK SMILES Cc1ccc([C@H](CO)n2cc([C@@H]([NH2+]Cc3ccc4c(c3)OCO4)C3CCCC3)nn2)cn1
REMARK SMILES IDX 9 1 10 2 11 3 29 4 30 5 6 7 5 8 2 9 3 10 32 11 4 12 31 13
REMARK SMILES IDX 1 14 7 15 8 16 12 18 13 19 14 22 15 23 16 24 20 25 17 26
REMARK SMILES IDX 19 27 18 28 21 29 23 30 22 31 24 32 25 33 28 34 26 35 27 36
REMARK H PARENT 10 6 8 17 13 20 13 21
ROOT
ATOM     1   N1  UNL     1      -0.722  -1.219  -2.502  1.00  0.00    -0.202 N   
ATOM     2   C8  UNL     1      -0.449  -0.379  -1.455  1.00  0.00     0.046 A   
ATOM     3   C9  UNL     1      -1.292  -0.803  -0.455  1.00  0.00     0.127 A   
ATOM     4   N3  UNL     1      -2.062  -1.837  -0.922  1.00  0.00    -0.132 NA  
ATOM     5   N4  UNL     1      -1.714  -2.075  -2.177  1.00  0.00    -0.075 NA  
ATOM     6   H10 UNL     1       0.296   0.403  -1.521  1.00  0.00     0.083 HD  
ENDROOT
BRANCH   1   7
ATOM     7   C6  UNL     1      -0.091  -1.285  -3.821  1.00  0.00     0.157 C   
BRANCH   7   8
ATOM     8   C5  UNL     1       1.421  -1.296  -3.689  1.00  0.00    -0.005 A   
ATOM     9   C2  UNL     1       4.159  -1.498  -3.328  1.00  0.00     0.037 A   
ATOM     10  C3  UNL     1       3.630  -0.323  -3.848  1.00  0.00     0.024 A   
ATOM     11  N5  UNL     1       3.381  -2.548  -2.981  1.00  0.00    -0.261 NA  
ATOM     12  C4  UNL     1       2.250  -0.223  -4.026  1.00  0.00     0.009 A   
ATOM     13  C24 UNL     1       2.049  -2.431  -3.173  1.00  0.00     0.117 A   
ATOM     14  C1  UNL     1       5.639  -1.638  -3.126  1.00  0.00     0.067 C   
ENDBRANCH   7   8
BRANCH   7  15
ATOM     15  C7  UNL     1      -0.712  -0.245  -4.775  1.00  0.00     0.186 C   
BRANCH  15  16
ATOM     16  O1  UNL     1      -0.612   1.092  -4.280  1.00  0.00    -0.394 OA  
ATOM     17  H9  UNL     1      -0.942   1.681  -4.984  1.00  0.00     0.210 HD  
ENDBRANCH  15  16
ENDBRANCH   7  15
ENDBRANCH   1   7
BRANCH   3  18
ATOM     18  C10 UNL     1      -1.494  -0.293   0.932  1.00  0.00     0.117 C   
BRANCH  18  19
ATOM     19  N2  UNL     1      -2.971  -0.281   1.269  1.00  0.00     0.249 N   
ATOM     20  H12 UNL     1      -3.311  -1.238   1.102  1.00  0.00     0.199 HD  
ATOM     21  H13 UNL     1      -3.108  -0.074   2.261  1.00  0.00     0.199 HD  
BRANCH  19  22
ATOM     22  C11 UNL     1      -3.826   0.643   0.464  1.00  0.00     0.164 C   
BRANCH  22  23
ATOM     23  C12 UNL     1      -3.475   2.091   0.662  1.00  0.00    -0.002 A   
ATOM     24  C13 UNL     1      -3.811   2.753   1.867  1.00  0.00     0.012 A   
ATOM     25  C17 UNL     1      -2.772   2.787  -0.338  1.00  0.00     0.045 A   
ATOM     26  C14 UNL     1      -3.446   4.088   2.078  1.00  0.00     0.037 A   
ATOM     27  C16 UNL     1      -2.428   4.101  -0.097  1.00  0.00     0.109 A   
ATOM     28  C15 UNL     1      -2.753   4.732   1.077  1.00  0.00     0.108 A   
ATOM     29  O2  UNL     1      -1.746   4.909  -0.950  1.00  0.00    -0.316 OA  
ATOM     30  O3  UNL     1      -2.316   6.018   1.113  1.00  0.00    -0.316 OA  
ATOM     31  C18 UNL     1      -1.696   6.135  -0.186  1.00  0.00     0.337 C   
ENDBRANCH  22  23
ENDBRANCH  19  22
ENDBRANCH  18  19
BRANCH  18  32
ATOM     32  C19 UNL     1      -0.767  -1.166   1.976  1.00  0.00     0.043 C   
ATOM     33  C20 UNL     1      -0.919  -0.678   3.422  1.00  0.00     0.010 C   
ATOM     34  C23 UNL     1       0.756  -1.175   1.805  1.00  0.00     0.010 C   
ATOM     35  C21 UNL     1       0.276  -1.258   4.179  1.00  0.00     0.001 C   
ATOM     36  C22 UNL     1       1.259  -1.748   3.121  1.00  0.00     0.001 C   
ENDBRANCH  18  32
ENDBRANCH   3  18
TORSDOF 9
