REMARK SMILES Cc1ccc([C@@H](CO)n2cc([C@@H]([NH2+]Cc3ccc4c(c3)OCO4)C3CCCC3)nn2)cn1
REMARK SMILES IDX 9 1 10 2 11 3 29 4 30 5 6 7 5 8 2 9 3 10 32 11 4 12 31 13
REMARK SMILES IDX 1 14 7 15 8 16 12 18 13 19 14 22 15 23 16 24 20 25 17 26
REMARK SMILES IDX 19 27 18 28 21 29 23 30 22 31 24 32 25 33 28 34 26 35 27 36
REMARK H PARENT 10 6 8 17 13 20 13 21
ROOT
ATOM     1   N1  UNL     1      -1.696  -1.653  -0.945  1.00  0.00    -0.202 N   
ATOM     2   C8  UNL     1      -1.176  -1.775   0.316  1.00  0.00     0.046 A   
ATOM     3   C9  UNL     1      -1.057  -0.478   0.759  1.00  0.00     0.127 A   
ATOM     4   N3  UNL     1      -1.505   0.374  -0.217  1.00  0.00    -0.132 NA  
ATOM     5   N4  UNL     1      -1.883  -0.352  -1.256  1.00  0.00    -0.075 NA  
ATOM     6   H10 UNL     1      -0.930  -2.738   0.744  1.00  0.00     0.083 HD  
ENDROOT
BRANCH   1   7
ATOM     7   C6  UNL     1      -1.912  -2.692  -1.954  1.00  0.00     0.157 C   
BRANCH   7   8
ATOM     8   C5  UNL     1      -0.598  -3.388  -2.260  1.00  0.00    -0.005 A   
ATOM     9   C2  UNL     1       1.895  -4.444  -2.843  1.00  0.00     0.037 A   
ATOM     10  C3  UNL     1       0.940  -5.253  -2.237  1.00  0.00     0.024 A   
ATOM     11  N5  UNL     1       1.651  -3.152  -3.156  1.00  0.00    -0.261 NA  
ATOM     12  C4  UNL     1      -0.313  -4.717  -1.941  1.00  0.00     0.009 A   
ATOM     13  C24 UNL     1       0.423  -2.664  -2.878  1.00  0.00     0.117 A   
ATOM     14  C1  UNL     1       3.249  -4.994  -3.179  1.00  0.00     0.067 C   
ENDBRANCH   7   8
BRANCH   7  15
ATOM     15  C7  UNL     1      -3.127  -3.570  -1.595  1.00  0.00     0.186 C   
BRANCH  15  16
ATOM     16  O1  UNL     1      -2.978  -4.242  -0.343  1.00  0.00    -0.394 OA  
ATOM     17  H9  UNL     1      -3.782  -4.780  -0.212  1.00  0.00     0.210 HD  
ENDBRANCH  15  16
ENDBRANCH   7  15
ENDBRANCH   1   7
BRANCH   3  18
ATOM     18  C10 UNL     1      -0.473   0.079   2.015  1.00  0.00     0.117 C   
BRANCH  18  19
ATOM     19  N2  UNL     1       0.365   1.288   1.679  1.00  0.00     0.249 N   
ATOM     20  H12 UNL     1       0.587   1.841   2.508  1.00  0.00     0.199 HD  
ATOM     21  H13 UNL     1      -0.210   1.889   1.071  1.00  0.00     0.199 HD  
BRANCH  19  22
ATOM     22  C11 UNL     1       1.635   0.998   0.952  1.00  0.00     0.164 C   
BRANCH  22  23
ATOM     23  C12 UNL     1       2.345   2.278   0.612  1.00  0.00    -0.002 A   
ATOM     24  C13 UNL     1       3.325   2.810   1.484  1.00  0.00     0.012 A   
ATOM     25  C17 UNL     1       1.998   2.981  -0.554  1.00  0.00     0.045 A   
ATOM     26  C14 UNL     1       3.961   4.022   1.194  1.00  0.00     0.037 A   
ATOM     27  C16 UNL     1       2.644   4.173  -0.810  1.00  0.00     0.109 A   
ATOM     28  C15 UNL     1       3.597   4.679   0.039  1.00  0.00     0.108 A   
ATOM     29  O2  UNL     1       2.430   4.972  -1.887  1.00  0.00    -0.316 OA  
ATOM     30  O3  UNL     1       4.106   5.860  -0.398  1.00  0.00    -0.316 OA  
ATOM     31  C18 UNL     1       3.379   6.033  -1.633  1.00  0.00     0.337 C   
ENDBRANCH  22  23
ENDBRANCH  19  22
ENDBRANCH  18  19
BRANCH  18  32
ATOM     32  C19 UNL     1      -1.560   0.497   3.023  1.00  0.00     0.043 C   
ATOM     33  C20 UNL     1      -2.427  -0.676   3.497  1.00  0.00     0.010 C   
ATOM     34  C23 UNL     1      -1.015   1.033   4.351  1.00  0.00     0.010 C   
ATOM     35  C21 UNL     1      -3.079  -0.186   4.786  1.00  0.00     0.001 C   
ATOM     36  C22 UNL     1      -2.200   0.947   5.306  1.00  0.00     0.001 C   
ENDBRANCH  18  32
ENDBRANCH   3  18
TORSDOF 9
