REMARK SMILES Cc1ccc(-n2cc([C@@H]([NH2+]Cc3ccc4c(c3)OCO4)C(C)(C)C)nn2)c(Cl)n1
REMARK SMILES IDX 9 1 8 2 6 3 7 4 26 5 25 6 5 7 2 8 3 9 29 10 4 11 27 12 1 13
REMARK SMILES IDX 28 14 10 15 11 18 12 19 13 20 17 21 14 22 16 23 15 24 18 25
REMARK SMILES IDX 20 26 19 27 21 28 22 29 23 30 24 31
REMARK H PARENT 10 16 10 17
ROOT
ATOM     1   C8  UNL     1      -0.751   2.658  -0.232  1.00  0.00     0.120 C   
ENDROOT
BRANCH   1   2
ATOM     2   C7  UNL     1      -0.253   1.459   0.518  1.00  0.00     0.128 A   
ATOM     3   N1  UNL     1       0.651  -0.442   1.152  1.00  0.00    -0.177 N   
ATOM     4   C6  UNL     1       0.781   0.591   0.244  1.00  0.00     0.135 A   
ATOM     5   N4  UNL     1      -0.364  -0.115   2.006  1.00  0.00    -0.071 NA  
ATOM     6   N3  UNL     1      -0.936   1.006   1.605  1.00  0.00    -0.131 NA  
BRANCH   3   7
ATOM     7   C5  UNL     1       1.330  -1.679   1.291  1.00  0.00     0.095 A   
ATOM     8   C2  UNL     1       2.567  -4.136   1.640  1.00  0.00     0.039 A   
ATOM     9   C3  UNL     1       1.633  -3.722   2.573  1.00  0.00     0.025 A   
ATOM     10  N5  UNL     1       2.886  -3.384   0.565  1.00  0.00    -0.239 NA  
ATOM     11  C4  UNL     1       1.009  -2.489   2.395  1.00  0.00     0.031 A   
ATOM     12  C21 UNL     1       2.277  -2.183   0.410  1.00  0.00     0.152 A   
ATOM     13  C1  UNL     1       3.253  -5.462   1.785  1.00  0.00     0.067 C   
ATOM     14  CL1 UNL     1       2.826  -1.457  -1.047  1.00  0.00    -0.060 Cl  
ENDBRANCH   3   7
ENDBRANCH   1   2
BRANCH   1  15
ATOM     15  N2  UNL     1      -2.264   2.563  -0.340  1.00  0.00     0.250 N   
ATOM     16  H8  UNL     1      -2.582   2.086   0.518  1.00  0.00     0.199 HD  
ATOM     17  H9  UNL     1      -2.696   3.490  -0.318  1.00  0.00     0.199 HD  
BRANCH  15  18
ATOM     18  C9  UNL     1      -2.807   1.820  -1.519  1.00  0.00     0.164 C   
BRANCH  18  19
ATOM     19  C10 UNL     1      -2.434   0.365  -1.555  1.00  0.00    -0.002 A   
ATOM     20  C11 UNL     1      -3.008  -0.543  -0.633  1.00  0.00     0.012 A   
ATOM     21  C15 UNL     1      -1.470  -0.099  -2.468  1.00  0.00     0.045 A   
ATOM     22  C12 UNL     1      -2.609  -1.884  -0.598  1.00  0.00     0.037 A   
ATOM     23  C14 UNL     1      -1.098  -1.427  -2.404  1.00  0.00     0.109 A   
ATOM     24  C13 UNL     1      -1.646  -2.292  -1.492  1.00  0.00     0.108 A   
ATOM     25  O1  UNL     1      -0.163  -2.024  -3.186  1.00  0.00    -0.316 OA  
ATOM     26  O2  UNL     1      -1.122  -3.542  -1.581  1.00  0.00    -0.316 OA  
ATOM     27  C16 UNL     1      -0.199  -3.378  -2.678  1.00  0.00     0.337 C   
ENDBRANCH  18  19
ENDBRANCH  15  18
ENDBRANCH   1  15
BRANCH   1  28
ATOM     28  C17 UNL     1      -0.327   4.031   0.396  1.00  0.00     0.010 C   
ATOM     29  C18 UNL     1       1.210   4.091   0.552  1.00  0.00     0.017 C   
ATOM     30  C19 UNL     1      -0.963   4.283   1.778  1.00  0.00     0.017 C   
ATOM     31  C20 UNL     1      -0.728   5.191  -0.544  1.00  0.00     0.017 C   
ENDBRANCH   1  28
TORSDOF 6
