REMARK SMILES CC(C)(C)[C@H]([NH2+]Cc1ccc2c(c1)OCO2)c1cn([C@H](CO)c2cc(F)ccc2O)nn1
REMARK SMILES IDX 17 1 18 2 19 3 31 4 32 5 5 7 2 8 1 9 3 10 4 11 6 12 7 15
REMARK SMILES IDX 8 16 9 17 13 18 10 19 12 20 11 21 14 22 16 23 15 24 20 25
REMARK SMILES IDX 21 26 22 27 23 29 24 30 29 31 25 32 28 33 27 34 26 35 30 36
REMARK H PARENT 18 6 6 13 6 14 22 28 30 37
ROOT
ATOM     1   C14 UNL     1       0.083  -0.195  -0.120  1.00  0.00     0.127 A   
ATOM     2   C15 UNL     1       0.913  -1.157  -0.655  1.00  0.00     0.046 A   
ATOM     3   N2  UNL     1       0.648  -1.115  -1.999  1.00  0.00    -0.202 N   
ATOM     4   N3  UNL     1      -0.274  -0.166  -2.272  1.00  0.00    -0.075 NA  
ATOM     5   N4  UNL     1      -0.622   0.404  -1.130  1.00  0.00    -0.132 NA  
ATOM     6   H20 UNL     1       1.628  -1.851  -0.232  1.00  0.00     0.083 HD  
ENDROOT
BRANCH   1   7
ATOM     7   C5  UNL     1      -0.092   0.288   1.287  1.00  0.00     0.120 C   
BRANCH   7   8
ATOM     8   C2  UNL     1      -1.203  -0.475   2.093  1.00  0.00     0.010 C   
ATOM     9   C1  UNL     1      -2.617  -0.246   1.524  1.00  0.00     0.017 C   
ATOM     10  C3  UNL     1      -1.195  -0.026   3.572  1.00  0.00     0.017 C   
ATOM     11  C4  UNL     1      -0.921  -1.996   2.084  1.00  0.00     0.017 C   
ENDBRANCH   7   8
BRANCH   7  12
ATOM     12  N1  UNL     1      -0.392   1.769   1.244  1.00  0.00     0.250 N   
ATOM     13  H11 UNL     1      -0.883   2.100   2.079  1.00  0.00     0.199 HD  
ATOM     14  H12 UNL     1      -1.045   1.907   0.456  1.00  0.00     0.199 HD  
BRANCH  12  15
ATOM     15  C6  UNL     1       0.783   2.644   0.987  1.00  0.00     0.164 C   
BRANCH  15  16
ATOM     16  C7  UNL     1       0.352   4.072   0.812  1.00  0.00    -0.002 A   
ATOM     17  C8  UNL     1       0.270   4.633  -0.485  1.00  0.00     0.012 A   
ATOM     18  C12 UNL     1      -0.015   4.848   1.930  1.00  0.00     0.045 A   
ATOM     19  C9  UNL     1      -0.158   5.953  -0.670  1.00  0.00     0.037 A   
ATOM     20  C11 UNL     1      -0.437   6.142   1.709  1.00  0.00     0.109 A   
ATOM     21  C10 UNL     1      -0.505   6.680   0.447  1.00  0.00     0.108 A   
ATOM     22  O1  UNL     1      -0.830   7.017   2.670  1.00  0.00    -0.316 OA  
ATOM     23  O2  UNL     1      -0.945   7.967   0.456  1.00  0.00    -0.316 OA  
ATOM     24  C13 UNL     1      -1.129   8.186   1.871  1.00  0.00     0.337 C   
ENDBRANCH  15  16
ENDBRANCH  12  15
ENDBRANCH   7  12
ENDBRANCH   1   7
BRANCH   3  25
ATOM     25  C16 UNL     1       1.231  -1.950  -3.050  1.00  0.00     0.158 C   
BRANCH  25  26
ATOM     26  C17 UNL     1       1.815  -1.103  -4.195  1.00  0.00     0.186 C   
BRANCH  26  27
ATOM     27  O3  UNL     1       2.984  -0.403  -3.749  1.00  0.00    -0.394 OA  
ATOM     28  H24 UNL     1       3.365   0.033  -4.533  1.00  0.00     0.210 HD  
ENDBRANCH  26  27
ENDBRANCH  25  26
BRANCH  25  29
ATOM     29  C18 UNL     1       0.221  -3.001  -3.486  1.00  0.00     0.010 A   
ATOM     30  C19 UNL     1      -0.745  -2.732  -4.473  1.00  0.00     0.047 A   
ATOM     31  C23 UNL     1       0.202  -4.267  -2.880  1.00  0.00     0.077 A   
ATOM     32  C20 UNL     1      -1.663  -3.711  -4.846  1.00  0.00     0.123 A   
ATOM     33  C22 UNL     1      -0.721  -5.247  -3.257  1.00  0.00     0.036 A   
ATOM     34  C21 UNL     1      -1.656  -4.965  -4.252  1.00  0.00     0.042 A   
ATOM     35  F1  UNL     1      -2.572  -3.436  -5.789  1.00  0.00    -0.207 F   
BRANCH  31  36
ATOM     36  O4  UNL     1       1.108  -4.536  -1.891  1.00  0.00    -0.361 OA  
ATOM     37  H28 UNL     1       1.045  -5.480  -1.658  1.00  0.00     0.218 HD  
ENDBRANCH  31  36
ENDBRANCH  25  29
ENDBRANCH   3  25
TORSDOF 10
