REMARK SMILES CC(C)(C)[C@H]([NH2+]Cc1ccc2c(c1)OCO2)c1cn([C@@H](CO)c2cc(F)ccc2O)nn1
REMARK SMILES IDX 17 1 18 2 19 3 31 4 32 5 5 7 2 8 1 9 3 10 4 11 6 12 7 15
REMARK SMILES IDX 8 16 9 17 13 18 10 19 12 20 11 21 14 22 16 23 15 24 20 25
REMARK SMILES IDX 21 26 22 27 23 29 24 30 29 31 25 32 28 33 27 34 26 35 30 36
REMARK H PARENT 18 6 6 13 6 14 22 28 30 37
ROOT
ATOM     1   C14 UNL     1      -0.302   0.068  -0.414  1.00  0.00     0.127 A   
ATOM     2   C15 UNL     1      -0.702   1.381  -0.508  1.00  0.00     0.046 A   
ATOM     3   N2  UNL     1       0.200   2.063   0.264  1.00  0.00    -0.202 N   
ATOM     4   N3  UNL     1       1.099   1.212   0.804  1.00  0.00    -0.075 NA  
ATOM     5   N4  UNL     1       0.800  -0.009   0.398  1.00  0.00    -0.132 NA  
ATOM     6   H20 UNL     1      -1.489   1.887  -1.054  1.00  0.00     0.083 HD  
ENDROOT
BRANCH   1   7
ATOM     7   C5  UNL     1      -0.815  -1.160  -1.100  1.00  0.00     0.120 C   
BRANCH   7   8
ATOM     8   C2  UNL     1      -1.791  -2.026  -0.225  1.00  0.00     0.010 C   
ATOM     9   C1  UNL     1      -2.937  -1.150   0.336  1.00  0.00     0.017 C   
ATOM     10  C3  UNL     1      -1.088  -2.718   0.957  1.00  0.00     0.017 C   
ATOM     11  C4  UNL     1      -2.448  -3.120  -1.099  1.00  0.00     0.017 C   
ENDBRANCH   7   8
BRANCH   7  12
ATOM     12  N1  UNL     1       0.360  -1.994  -1.553  1.00  0.00     0.250 N   
ATOM     13  H11 UNL     1       0.995  -2.089  -0.746  1.00  0.00     0.199 HD  
ATOM     14  H12 UNL     1       0.080  -2.947  -1.816  1.00  0.00     0.199 HD  
BRANCH  12  15
ATOM     15  C6  UNL     1       1.159  -1.422  -2.676  1.00  0.00     0.164 C   
BRANCH  15  16
ATOM     16  C7  UNL     1       2.258  -2.371  -3.057  1.00  0.00    -0.002 A   
ATOM     17  C8  UNL     1       3.505  -2.321  -2.385  1.00  0.00     0.012 A   
ATOM     18  C12 UNL     1       2.040  -3.357  -4.036  1.00  0.00     0.045 A   
ATOM     19  C9  UNL     1       4.525  -3.231  -2.690  1.00  0.00     0.037 A   
ATOM     20  C11 UNL     1       3.067  -4.240  -4.312  1.00  0.00     0.109 A   
ATOM     21  C10 UNL     1       4.274  -4.179  -3.660  1.00  0.00     0.108 A   
ATOM     22  O1  UNL     1       3.018  -5.243  -5.225  1.00  0.00    -0.316 OA  
ATOM     23  O2  UNL     1       5.139  -5.135  -4.083  1.00  0.00    -0.316 OA  
ATOM     24  C13 UNL     1       4.329  -5.829  -5.058  1.00  0.00     0.337 C   
ENDBRANCH  15  16
ENDBRANCH  12  15
ENDBRANCH   7  12
ENDBRANCH   1   7
BRANCH   3  25
ATOM     25  C16 UNL     1       0.304   3.506   0.512  1.00  0.00     0.158 C   
BRANCH  25  26
ATOM     26  C17 UNL     1       0.845   4.196  -0.755  1.00  0.00     0.186 C   
BRANCH  26  27
ATOM     27  O3  UNL     1      -0.004   4.025  -1.894  1.00  0.00    -0.394 OA  
ATOM     28  H24 UNL     1      -0.664   4.747  -1.832  1.00  0.00     0.210 HD  
ENDBRANCH  26  27
ENDBRANCH  25  26
BRANCH  25  29
ATOM     29  C18 UNL     1      -0.957   4.024   1.197  1.00  0.00     0.010 A   
ATOM     30  C19 UNL     1      -1.276   3.473   2.462  1.00  0.00     0.047 A   
ATOM     31  C23 UNL     1      -1.807   5.024   0.705  1.00  0.00     0.077 A   
ATOM     32  C20 UNL     1      -2.409   3.881   3.160  1.00  0.00     0.123 A   
ATOM     33  C22 UNL     1      -2.942   5.436   1.420  1.00  0.00     0.036 A   
ATOM     34  C21 UNL     1      -3.250   4.852   2.645  1.00  0.00     0.042 A   
ATOM     35  F1  UNL     1      -2.686   3.322   4.344  1.00  0.00    -0.207 F   
BRANCH  31  36
ATOM     36  O4  UNL     1      -1.538   5.635  -0.487  1.00  0.00    -0.361 OA  
ATOM     37  H28 UNL     1      -2.143   6.383  -0.585  1.00  0.00     0.218 HD  
ENDBRANCH  31  36
ENDBRANCH  25  29
ENDBRANCH   3  25
TORSDOF 10
