REMARK SMILES COc1cc(O)ccc1Cn1cc([C@@H]([NH2+]Cc2ccc3c(c2)OCO3)C2CCCCC2)nn1
REMARK SMILES IDX 11 1 12 2 13 3 32 4 33 5 10 7 9 8 3 9 4 10 5 11 8 12 7 13
REMARK SMILES IDX 2 14 1 15 6 16 14 18 15 19 16 22 17 23 18 24 22 25 19 26
REMARK SMILES IDX 21 27 20 28 23 29 25 30 24 31 26 32 27 33 31 34 28 35 30 36
REMARK SMILES IDX 29 37
REMARK H PARENT 12 6 6 17 15 20 15 21
ROOT
ATOM     1   N1  UNL     1      -2.143   0.845   2.333  1.00  0.00    -0.208 N   
ATOM     2   C9  UNL     1      -0.910   1.199   1.857  1.00  0.00     0.046 A   
ATOM     3   C10 UNL     1      -1.174   1.738   0.618  1.00  0.00     0.127 A   
ATOM     4   N3  UNL     1      -2.525   1.698   0.386  1.00  0.00    -0.132 NA  
ATOM     5   N4  UNL     1      -3.108   1.156   1.443  1.00  0.00    -0.076 NA  
ATOM     6   H10 UNL     1      -0.003   1.015   2.414  1.00  0.00     0.083 HD  
ENDROOT
BRANCH   1   7
ATOM     7   C8  UNL     1      -2.475   0.244   3.613  1.00  0.00     0.172 C   
BRANCH   7   8
ATOM     8   C7  UNL     1      -2.415  -1.262   3.540  1.00  0.00     0.002 A   
ATOM     9   C2  UNL     1      -1.212  -1.958   3.761  1.00  0.00     0.082 A   
ATOM     10  C3  UNL     1      -1.197  -3.351   3.672  1.00  0.00     0.067 A   
ATOM     11  C4  UNL     1      -2.365  -4.043   3.364  1.00  0.00     0.074 A   
ATOM     12  C6  UNL     1      -3.582  -1.982   3.222  1.00  0.00     0.011 A   
ATOM     13  C5  UNL     1      -3.558  -3.373   3.136  1.00  0.00     0.034 A   
BRANCH   9  14
ATOM     14  O1  UNL     1      -0.116  -1.183   4.043  1.00  0.00    -0.349 OA  
ATOM     15  C1  UNL     1       1.073  -1.864   4.434  1.00  0.00     0.203 C   
ENDBRANCH   9  14
BRANCH  11  16
ATOM     16  O2  UNL     1      -2.287  -5.401   3.276  1.00  0.00    -0.361 OA  
ATOM     17  H5  UNL     1      -3.188  -5.764   3.217  1.00  0.00     0.218 HD  
ENDBRANCH  11  16
ENDBRANCH   7   8
ENDBRANCH   1   7
BRANCH   3  18
ATOM     18  C11 UNL     1      -0.262   2.225  -0.464  1.00  0.00     0.117 C   
BRANCH  18  19
ATOM     19  N2  UNL     1      -0.862   1.770  -1.786  1.00  0.00     0.249 N   
ATOM     20  H12 UNL     1      -1.748   1.294  -1.544  1.00  0.00     0.199 HD  
ATOM     21  H13 UNL     1      -1.168   2.577  -2.340  1.00  0.00     0.199 HD  
BRANCH  19  22
ATOM     22  C12 UNL     1      -0.046   0.843  -2.611  1.00  0.00     0.164 C   
BRANCH  22  23
ATOM     23  C13 UNL     1       0.295  -0.453  -1.928  1.00  0.00    -0.002 A   
ATOM     24  C14 UNL     1       1.649  -0.800  -1.703  1.00  0.00     0.012 A   
ATOM     25  C18 UNL     1      -0.719  -1.337  -1.516  1.00  0.00     0.045 A   
ATOM     26  C15 UNL     1       1.991  -2.001  -1.075  1.00  0.00     0.037 A   
ATOM     27  C17 UNL     1      -0.347  -2.515  -0.901  1.00  0.00     0.109 A   
ATOM     28  C16 UNL     1       0.969  -2.838  -0.688  1.00  0.00     0.108 A   
ATOM     29  O3  UNL     1      -1.197  -3.475  -0.450  1.00  0.00    -0.316 OA  
ATOM     30  O4  UNL     1       1.115  -4.045  -0.082  1.00  0.00    -0.316 OA  
ATOM     31  C19 UNL     1      -0.261  -4.466   0.031  1.00  0.00     0.337 C   
ENDBRANCH  22  23
ENDBRANCH  19  22
ENDBRANCH  18  19
BRANCH  18  32
ATOM     32  C20 UNL     1      -0.098   3.772  -0.483  1.00  0.00     0.043 C   
ATOM     33  C21 UNL     1       0.432   4.337   0.854  1.00  0.00     0.010 C   
ATOM     34  C25 UNL     1       0.828   4.269  -1.615  1.00  0.00     0.010 C   
ATOM     35  C22 UNL     1       1.892   3.973   1.115  1.00  0.00     0.001 C   
ATOM     36  C24 UNL     1       2.297   3.915  -1.383  1.00  0.00     0.001 C   
ATOM     37  C23 UNL     1       2.794   4.420  -0.032  1.00  0.00     0.000 C   
ENDBRANCH  18  32
ENDBRANCH   3  18
TORSDOF 9
