REMARK SMILES CCc1ccc([C@H](O)Cn2cc([C@H](CC(C)C)[NH2+]Cc3ccc4c(c3)OCO4)nn2)cc1
REMARK SMILES IDX 10 1 11 2 12 3 29 4 30 5 9 7 7 8 6 9 3 10 4 11 32 12 5 13
REMARK SMILES IDX 31 14 2 15 1 16 8 17 13 19 14 20 15 21 16 22 17 23 18 24
REMARK SMILES IDX 19 27 20 28 21 29 25 30 22 31 24 32 23 33 26 34 28 35 27 36
REMARK H PARENT 11 6 8 18 18 25 18 26
ROOT
ATOM     1   N1  UNL     1       1.124   0.413  -0.965  1.00  0.00    -0.209 N   
ATOM     2   C9  UNL     1       0.028   1.108  -1.392  1.00  0.00     0.045 A   
ATOM     3   C10 UNL     1      -0.169   2.051  -0.410  1.00  0.00     0.127 A   
ATOM     4   N3  UNL     1       0.799   1.909   0.553  1.00  0.00    -0.132 NA  
ATOM     5   N4  UNL     1       1.579   0.898   0.206  1.00  0.00    -0.076 NA  
ATOM     6   H12 UNL     1      -0.498   0.852  -2.302  1.00  0.00     0.083 HD  
ENDROOT
BRANCH   1   7
ATOM     7   C8  UNL     1       1.764  -0.728  -1.592  1.00  0.00     0.170 C   
BRANCH   7   8
ATOM     8   C7  UNL     1       1.243  -2.042  -1.007  1.00  0.00     0.164 C   
BRANCH   8   9
ATOM     9   C6  UNL     1       2.068  -3.225  -1.463  1.00  0.00    -0.018 A   
ATOM     10  C3  UNL     1       3.623  -5.428  -2.296  1.00  0.00    -0.048 A   
ATOM     11  C4  UNL     1       3.637  -5.012  -0.960  1.00  0.00     0.004 A   
ATOM     12  C25 UNL     1       2.833  -4.729  -3.216  1.00  0.00     0.004 A   
ATOM     13  C5  UNL     1       2.866  -3.923  -0.547  1.00  0.00     0.007 A   
ATOM     14  C24 UNL     1       2.061  -3.640  -2.803  1.00  0.00     0.007 A   
BRANCH  10  15
ATOM     15  C2  UNL     1       4.472  -6.590  -2.744  1.00  0.00     0.032 C   
ATOM     16  C1  UNL     1       5.879  -6.148  -3.120  1.00  0.00     0.009 C   
ENDBRANCH  10  15
ENDBRANCH   8   9
BRANCH   8  17
ATOM     17  O1  UNL     1      -0.123  -2.239  -1.398  1.00  0.00    -0.387 OA  
ATOM     18  H9  UNL     1      -0.287  -3.202  -1.382  1.00  0.00     0.211 HD  
ENDBRANCH   8  17
ENDBRANCH   7   8
ENDBRANCH   1   7
BRANCH   3  19
ATOM     19  C11 UNL     1      -1.240   3.077  -0.231  1.00  0.00     0.114 C   
BRANCH  19  20
ATOM     20  C12 UNL     1      -0.790   4.438  -0.796  1.00  0.00     0.064 C   
BRANCH  20  21
ATOM     21  C13 UNL     1      -1.788   5.609  -0.669  1.00  0.00    -0.012 C   
ATOM     22  C14 UNL     1      -1.212   6.852  -1.354  1.00  0.00     0.007 C   
ATOM     23  C15 UNL     1      -3.159   5.284  -1.263  1.00  0.00     0.007 C   
ENDBRANCH  20  21
ENDBRANCH  19  20
BRANCH  19  24
ATOM     24  N2  UNL     1      -1.577   3.223   1.228  1.00  0.00     0.249 N   
ATOM     25  H23 UNL     1      -2.145   4.054   1.410  1.00  0.00     0.199 HD  
ATOM     26  H24 UNL     1      -0.688   3.361   1.731  1.00  0.00     0.199 HD  
BRANCH  24  27
ATOM     27  C16 UNL     1      -2.257   2.046   1.839  1.00  0.00     0.164 C   
BRANCH  27  28
ATOM     28  C17 UNL     1      -2.535   2.297   3.294  1.00  0.00    -0.002 A   
ATOM     29  C18 UNL     1      -1.537   2.032   4.263  1.00  0.00     0.012 A   
ATOM     30  C22 UNL     1      -3.763   2.848   3.696  1.00  0.00     0.045 A   
ATOM     31  C19 UNL     1      -1.763   2.299   5.618  1.00  0.00     0.037 A   
ATOM     32  C21 UNL     1      -3.953   3.099   5.040  1.00  0.00     0.109 A   
ATOM     33  C20 UNL     1      -2.981   2.833   5.973  1.00  0.00     0.108 A   
ATOM     34  O2  UNL     1      -5.076   3.625   5.594  1.00  0.00    -0.316 OA  
ATOM     35  O3  UNL     1      -3.370   3.160   7.233  1.00  0.00    -0.316 OA  
ATOM     36  C23 UNL     1      -4.716   3.625   6.995  1.00  0.00     0.337 C   
ENDBRANCH  27  28
ENDBRANCH  24  27
ENDBRANCH  19  24
ENDBRANCH   3  19
TORSDOF 11
