REMARK SMILES CCc1ccc([C@@H](O)Cn2cc([C@H](CC(C)C)[NH2+]Cc3ccc4c(c3)OCO4)nn2)cc1
REMARK SMILES IDX 10 1 11 2 12 3 29 4 30 5 9 7 7 8 6 9 3 10 4 11 32 12 5 13
REMARK SMILES IDX 31 14 2 15 1 16 8 17 13 19 14 20 15 21 16 22 17 23 18 24
REMARK SMILES IDX 19 27 20 28 21 29 25 30 22 31 24 32 23 33 26 34 28 35 27 36
REMARK H PARENT 11 6 8 18 18 25 18 26
ROOT
ATOM     1   N1  UNL     1       3.107  -1.695  -0.816  1.00  0.00    -0.209 N   
ATOM     2   C9  UNL     1       1.800  -1.865  -0.454  1.00  0.00     0.045 A   
ATOM     3   C10 UNL     1       1.116  -1.820  -1.648  1.00  0.00     0.127 A   
ATOM     4   N3  UNL     1       2.013  -1.652  -2.672  1.00  0.00    -0.132 NA  
ATOM     5   N4  UNL     1       3.223  -1.556  -2.148  1.00  0.00    -0.076 NA  
ATOM     6   H12 UNL     1       1.493  -1.979   0.577  1.00  0.00     0.083 HD  
ENDROOT
BRANCH   1   7
ATOM     7   C8  UNL     1       4.271  -1.648   0.038  1.00  0.00     0.170 C   
BRANCH   7   8
ATOM     8   C7  UNL     1       4.648  -0.223   0.456  1.00  0.00     0.164 C   
BRANCH   8   9
ATOM     9   C6  UNL     1       3.576   0.456   1.287  1.00  0.00    -0.018 A   
ATOM     10  C3  UNL     1       1.522   1.666   2.796  1.00  0.00    -0.048 A   
ATOM     11  C4  UNL     1       1.845   2.145   1.520  1.00  0.00     0.004 A   
ATOM     12  C25 UNL     1       2.245   0.589   3.318  1.00  0.00     0.004 A   
ATOM     13  C5  UNL     1       2.861   1.546   0.772  1.00  0.00     0.007 A   
ATOM     14  C24 UNL     1       3.262  -0.010   2.572  1.00  0.00     0.007 A   
BRANCH  10  15
ATOM     15  C2  UNL     1       0.444   2.330   3.615  1.00  0.00     0.032 C   
ATOM     16  C1  UNL     1       1.017   3.350   4.588  1.00  0.00     0.009 C   
ENDBRANCH  10  15
ENDBRANCH   8   9
BRANCH   8  17
ATOM     17  O1  UNL     1       5.859  -0.272   1.214  1.00  0.00    -0.387 OA  
ATOM     18  H9  UNL     1       5.982   0.604   1.621  1.00  0.00     0.211 HD  
ENDBRANCH   8  17
ENDBRANCH   7   8
ENDBRANCH   1   7
BRANCH   3  19
ATOM     19  C11 UNL     1      -0.348  -1.903  -1.940  1.00  0.00     0.114 C   
BRANCH  19  20
ATOM     20  C12 UNL     1      -0.815  -3.373  -1.957  1.00  0.00     0.064 C   
BRANCH  20  21
ATOM     21  C13 UNL     1      -2.328  -3.612  -2.149  1.00  0.00    -0.012 C   
ATOM     22  C14 UNL     1      -2.616  -5.118  -2.131  1.00  0.00     0.007 C   
ATOM     23  C15 UNL     1      -3.174  -2.917  -1.081  1.00  0.00     0.007 C   
ENDBRANCH  20  21
ENDBRANCH  19  20
BRANCH  19  24
ATOM     24  N2  UNL     1      -0.665  -1.274  -3.277  1.00  0.00     0.249 N   
ATOM     25  H23 UNL     1      -0.015  -1.699  -3.954  1.00  0.00     0.199 HD  
ATOM     26  H24 UNL     1      -1.615  -1.509  -3.573  1.00  0.00     0.199 HD  
BRANCH  24  27
ATOM     27  C16 UNL     1      -0.492   0.207  -3.373  1.00  0.00     0.164 C   
BRANCH  27  28
ATOM     28  C17 UNL     1      -1.477   0.971  -2.534  1.00  0.00    -0.002 A   
ATOM     29  C18 UNL     1      -2.835   1.056  -2.921  1.00  0.00     0.012 A   
ATOM     30  C22 UNL     1      -1.057   1.588  -1.343  1.00  0.00     0.045 A   
ATOM     31  C19 UNL     1      -3.763   1.747  -2.135  1.00  0.00     0.037 A   
ATOM     32  C21 UNL     1      -1.996   2.267  -0.596  1.00  0.00     0.109 A   
ATOM     33  C20 UNL     1      -3.311   2.343  -0.979  1.00  0.00     0.108 A   
ATOM     34  O2  UNL     1      -1.753   2.931   0.564  1.00  0.00    -0.316 OA  
ATOM     35  O3  UNL     1      -4.063   3.065  -0.108  1.00  0.00    -0.316 OA  
ATOM     36  C23 UNL     1      -3.068   3.454   0.860  1.00  0.00     0.337 C   
ENDBRANCH  27  28
ENDBRANCH  24  27
ENDBRANCH  19  24
ENDBRANCH   3  19
TORSDOF 11
