REMARK SMILES COc1ccnc(Cn2cc([C@@H]([NH2+]Cc3ccc4c(c3)OCO4)C3CCCCC3)nn2)c1
REMARK SMILES IDX 9 1 10 2 11 3 30 4 31 5 8 7 7 8 3 9 4 10 32 11 5 12 6 13
REMARK SMILES IDX 2 14 1 15 12 16 13 17 14 20 15 21 16 22 20 23 17 24 19 25
REMARK SMILES IDX 18 26 21 27 23 28 22 29 24 30 25 31 29 32 26 33 28 34 27 35
REMARK H PARENT 10 6 13 18 13 19
ROOT
ATOM     1   N2  UNL     1      -2.342  -0.426   0.517  1.00  0.00    -0.206 N   
ATOM     2   C7  UNL     1      -1.245  -0.880  -0.162  1.00  0.00     0.046 A   
ATOM     3   C8  UNL     1      -0.412   0.214  -0.218  1.00  0.00     0.127 A   
ATOM     4   N4  UNL     1      -1.045   1.290   0.351  1.00  0.00    -0.132 NA  
ATOM     5   N5  UNL     1      -2.231   0.891   0.781  1.00  0.00    -0.076 NA  
ATOM     6   H8  UNL     1      -1.152  -1.910  -0.482  1.00  0.00     0.083 HD  
ENDROOT
BRANCH   1   7
ATOM     7   C6  UNL     1      -3.518  -1.171   0.924  1.00  0.00     0.190 C   
BRANCH   7   8
ATOM     8   C5  UNL     1      -3.181  -2.076   2.077  1.00  0.00     0.062 A   
ATOM     9   C2  UNL     1      -2.916  -2.478   4.425  1.00  0.00     0.078 A   
ATOM     10  C3  UNL     1      -2.500  -3.770   4.117  1.00  0.00     0.053 A   
ATOM     11  C24 UNL     1      -3.262  -1.614   3.391  1.00  0.00     0.059 A   
ATOM     12  C4  UNL     1      -2.442  -4.148   2.790  1.00  0.00     0.114 A   
ATOM     13  N1  UNL     1      -2.763  -3.329   1.764  1.00  0.00    -0.259 NA  
BRANCH   9  14
ATOM     14  O1  UNL     1      -2.935  -2.187   5.760  1.00  0.00    -0.349 OA  
ATOM     15  C1  UNL     1      -3.413  -0.902   6.139  1.00  0.00     0.203 C   
ENDBRANCH   9  14
ENDBRANCH   7   8
ENDBRANCH   1   7
BRANCH   3  16
ATOM     16  C9  UNL     1       0.953   0.384  -0.808  1.00  0.00     0.117 C   
BRANCH  16  17
ATOM     17  N3  UNL     1       1.008   1.711  -1.541  1.00  0.00     0.249 N   
ATOM     18  H10 UNL     1       1.962   1.928  -1.833  1.00  0.00     0.199 HD  
ATOM     19  H11 UNL     1       0.721   2.427  -0.859  1.00  0.00     0.199 HD  
BRANCH  17  20
ATOM     20  C10 UNL     1       0.120   1.850  -2.736  1.00  0.00     0.164 C   
BRANCH  20  21
ATOM     21  C11 UNL     1       0.527   0.950  -3.869  1.00  0.00    -0.002 A   
ATOM     22  C12 UNL     1       1.673   1.248  -4.646  1.00  0.00     0.012 A   
ATOM     23  C16 UNL     1      -0.209  -0.216  -4.142  1.00  0.00     0.045 A   
ATOM     24  C13 UNL     1       2.083   0.395  -5.676  1.00  0.00     0.037 A   
ATOM     25  C15 UNL     1       0.224  -1.036  -5.163  1.00  0.00     0.109 A   
ATOM     26  C14 UNL     1       1.338  -0.740  -5.908  1.00  0.00     0.108 A   
ATOM     27  O2  UNL     1      -0.364  -2.199  -5.546  1.00  0.00    -0.316 OA  
ATOM     28  O3  UNL     1       1.590  -1.677  -6.858  1.00  0.00    -0.316 OA  
ATOM     29  C17 UNL     1       0.492  -2.590  -6.644  1.00  0.00     0.337 C   
ENDBRANCH  20  21
ENDBRANCH  17  20
ENDBRANCH  16  17
BRANCH  16  30
ATOM     30  C18 UNL     1       2.074   0.350   0.279  1.00  0.00     0.043 C   
ATOM     31  C19 UNL     1       3.484   0.543  -0.323  1.00  0.00     0.010 C   
ATOM     32  C23 UNL     1       2.032  -0.978   1.074  1.00  0.00     0.010 C   
ATOM     33  C20 UNL     1       4.594   0.421   0.719  1.00  0.00     0.001 C   
ATOM     34  C22 UNL     1       3.148  -1.082   2.109  1.00  0.00     0.001 C   
ATOM     35  C21 UNL     1       4.519  -0.897   1.476  1.00  0.00     0.000 C   
ENDBRANCH  16  30
ENDBRANCH   3  16
TORSDOF 8
