REMARK SMILES O[C@@H](Cn1cc([C@@H]([NH2+]Cc2ccc3c(c2)OCO3)C2CCCCC2)nn1)c1cccnc1
REMARK SMILES IDX 4 1 5 2 6 3 25 4 26 5 3 7 2 8 1 9 27 11 28 12 32 13 29 14
REMARK SMILES IDX 31 15 30 16 7 17 8 18 9 21 10 22 11 23 15 24 12 25 14 26
REMARK SMILES IDX 13 27 16 28 18 29 17 30 19 31 20 32 24 33 21 34 23 35 22 36
REMARK H PARENT 5 6 1 10 8 19 8 20
ROOT
ATOM     1   N1  UNL     1       3.247   1.613   0.970  1.00  0.00    -0.209 N   
ATOM     2   C3  UNL     1       1.891   1.673   0.788  1.00  0.00     0.045 A   
ATOM     3   C4  UNL     1       1.505   0.351   0.747  1.00  0.00     0.127 A   
ATOM     4   N3  UNL     1       2.600  -0.444   0.983  1.00  0.00    -0.132 NA  
ATOM     5   N4  UNL     1       3.658   0.339   1.113  1.00  0.00    -0.076 NA  
ATOM     6   H5  UNL     1       1.367   2.606   0.624  1.00  0.00     0.083 HD  
ENDROOT
BRANCH   1   7
ATOM     7   C2  UNL     1       4.208   2.679   0.787  1.00  0.00     0.170 C   
BRANCH   7   8
ATOM     8   C1  UNL     1       4.915   2.608  -0.579  1.00  0.00     0.165 C   
BRANCH   8   9
ATOM     9   O1  UNL     1       5.760   3.752  -0.714  1.00  0.00    -0.387 OA  
ATOM     10  H1  UNL     1       6.233   3.665  -1.563  1.00  0.00     0.211 HD  
ENDBRANCH   8   9
BRANCH   8  11
ATOM     11  C20 UNL     1       3.937   2.567  -1.732  1.00  0.00     0.000 A   
ATOM     12  C21 UNL     1       3.321   3.717  -2.234  1.00  0.00     0.009 A   
ATOM     13  C24 UNL     1       3.537   1.344  -2.267  1.00  0.00     0.117 A   
ATOM     14  C22 UNL     1       2.343   3.606  -3.219  1.00  0.00     0.020 A   
ATOM     15  N5  UNL     1       2.554   1.200  -3.186  1.00  0.00    -0.264 NA  
ATOM     16  C23 UNL     1       1.996   2.340  -3.656  1.00  0.00     0.111 A   
ENDBRANCH   8  11
ENDBRANCH   7   8
ENDBRANCH   1   7
BRANCH   3  17
ATOM     17  C5  UNL     1       0.189  -0.286   0.423  1.00  0.00     0.117 C   
BRANCH  17  18
ATOM     18  N2  UNL     1       0.412  -1.723   0.010  1.00  0.00     0.249 N   
ATOM     19  H7  UNL     1      -0.374  -2.323   0.266  1.00  0.00     0.199 HD  
ATOM     20  H8  UNL     1       1.221  -2.049   0.561  1.00  0.00     0.199 HD  
BRANCH  18  21
ATOM     21  C6  UNL     1       0.748  -1.928  -1.431  1.00  0.00     0.164 C   
BRANCH  21  22
ATOM     22  C7  UNL     1      -0.471  -1.892  -2.312  1.00  0.00    -0.002 A   
ATOM     23  C8  UNL     1      -1.451  -2.912  -2.231  1.00  0.00     0.012 A   
ATOM     24  C12 UNL     1      -0.648  -0.833  -3.220  1.00  0.00     0.045 A   
ATOM     25  C9  UNL     1      -2.598  -2.871  -3.034  1.00  0.00     0.037 A   
ATOM     26  C11 UNL     1      -1.790  -0.822  -3.994  1.00  0.00     0.109 A   
ATOM     27  C10 UNL     1      -2.739  -1.811  -3.902  1.00  0.00     0.108 A   
ATOM     28  O2  UNL     1      -2.117   0.127  -4.908  1.00  0.00    -0.316 OA  
ATOM     29  O3  UNL     1      -3.782  -1.610  -4.748  1.00  0.00    -0.316 OA  
ATOM     30  C13 UNL     1      -3.360  -0.403  -5.421  1.00  0.00     0.337 C   
ENDBRANCH  21  22
ENDBRANCH  18  21
ENDBRANCH  17  18
BRANCH  17  31
ATOM     31  C14 UNL     1      -0.821  -0.202   1.597  1.00  0.00     0.043 C   
ATOM     32  C15 UNL     1      -0.416  -1.034   2.830  1.00  0.00     0.010 C   
ATOM     33  C19 UNL     1      -2.246  -0.575   1.139  1.00  0.00     0.010 C   
ATOM     34  C16 UNL     1      -1.436  -0.906   3.957  1.00  0.00     0.001 C   
ATOM     35  C18 UNL     1      -3.258  -0.435   2.274  1.00  0.00     0.001 C   
ATOM     36  C17 UNL     1      -2.848  -1.254   3.491  1.00  0.00     0.000 C   
ENDBRANCH  17  31
ENDBRANCH   3  17
TORSDOF 9
