REMARK SMILES O[C@H](Cn1cc([C@@H]([NH2+]Cc2ccc3c(c2)OCO3)C2CCCCC2)nn1)c1cccnc1
REMARK SMILES IDX 4 1 5 2 6 3 25 4 26 5 3 7 2 8 1 9 27 11 28 12 32 13 29 14
REMARK SMILES IDX 31 15 30 16 7 17 8 18 9 21 10 22 11 23 15 24 12 25 14 26
REMARK SMILES IDX 13 27 16 28 18 29 17 30 19 31 20 32 24 33 21 34 23 35 22 36
REMARK H PARENT 5 6 1 10 8 19 8 20
ROOT
ATOM     1   N1  UNL     1       0.457  -3.132   2.499  1.00  0.00    -0.209 N   
ATOM     2   C3  UNL     1       1.385  -2.136   2.344  1.00  0.00     0.045 A   
ATOM     3   C4  UNL     1       1.797  -2.267   1.034  1.00  0.00     0.127 A   
ATOM     4   N3  UNL     1       1.247  -3.416   0.517  1.00  0.00    -0.132 NA  
ATOM     5   N4  UNL     1       0.431  -3.933   1.420  1.00  0.00    -0.076 NA  
ATOM     6   H5  UNL     1       1.540  -1.380   3.102  1.00  0.00     0.083 HD  
ENDROOT
BRANCH   1   7
ATOM     7   C2  UNL     1      -0.638  -3.152   3.449  1.00  0.00     0.170 C   
BRANCH   7   8
ATOM     8   C1  UNL     1      -1.948  -2.608   2.839  1.00  0.00     0.165 C   
BRANCH   8   9
ATOM     9   O1  UNL     1      -2.934  -2.529   3.865  1.00  0.00    -0.387 OA  
ATOM     10  H1  UNL     1      -3.751  -2.171   3.469  1.00  0.00     0.211 HD  
ENDBRANCH   8   9
BRANCH   8  11
ATOM     11  C20 UNL     1      -1.768  -1.245   2.197  1.00  0.00     0.000 A   
ATOM     12  C21 UNL     1      -1.784  -0.057   2.932  1.00  0.00     0.009 A   
ATOM     13  C24 UNL     1      -1.437  -1.151   0.844  1.00  0.00     0.117 A   
ATOM     14  C22 UNL     1      -1.489   1.148   2.299  1.00  0.00     0.020 A   
ATOM     15  N5  UNL     1      -1.034  -0.011   0.223  1.00  0.00    -0.264 NA  
ATOM     16  C23 UNL     1      -1.128   1.123   0.960  1.00  0.00     0.111 A   
ENDBRANCH   8  11
ENDBRANCH   7   8
ENDBRANCH   1   7
BRANCH   3  17
ATOM     17  C5  UNL     1       2.568  -1.357   0.121  1.00  0.00     0.117 C   
BRANCH  17  18
ATOM     18  N2  UNL     1       1.650  -0.702  -0.873  1.00  0.00     0.249 N   
ATOM     19  H7  UNL     1       0.802  -0.337  -0.395  1.00  0.00     0.199 HD  
ATOM     20  H8  UNL     1       2.096   0.106  -1.306  1.00  0.00     0.199 HD  
BRANCH  18  21
ATOM     21  C6  UNL     1       1.165  -1.582  -1.976  1.00  0.00     0.164 C   
BRANCH  21  22
ATOM     22  C7  UNL     1       0.685  -0.759  -3.142  1.00  0.00    -0.002 A   
ATOM     23  C8  UNL     1       1.619  -0.215  -4.059  1.00  0.00     0.012 A   
ATOM     24  C12 UNL     1      -0.684  -0.501  -3.313  1.00  0.00     0.045 A   
ATOM     25  C9  UNL     1       1.194   0.566  -5.139  1.00  0.00     0.037 A   
ATOM     26  C11 UNL     1      -1.070   0.255  -4.400  1.00  0.00     0.109 A   
ATOM     27  C10 UNL     1      -0.158   0.776  -5.285  1.00  0.00     0.108 A   
ATOM     28  O2  UNL     1      -2.350   0.569  -4.732  1.00  0.00    -0.316 OA  
ATOM     29  O3  UNL     1      -0.750   1.487  -6.282  1.00  0.00    -0.316 OA  
ATOM     30  C13 UNL     1      -2.143   1.263  -5.984  1.00  0.00     0.337 C   
ENDBRANCH  21  22
ENDBRANCH  18  21
ENDBRANCH  17  18
BRANCH  17  31
ATOM     31  C14 UNL     1       3.461  -0.311   0.858  1.00  0.00     0.043 C   
ATOM     32  C15 UNL     1       4.699   0.111   0.035  1.00  0.00     0.010 C   
ATOM     33  C19 UNL     1       2.736   0.918   1.443  1.00  0.00     0.010 C   
ATOM     34  C16 UNL     1       4.483   1.280  -0.919  1.00  0.00     0.001 C   
ATOM     35  C18 UNL     1       2.559   2.099   0.489  1.00  0.00     0.001 C   
ATOM     36  C17 UNL     1       3.857   2.474  -0.213  1.00  0.00     0.000 C   
ENDBRANCH  17  31
ENDBRANCH   3  17
TORSDOF 9
