REMARK SMILES c1cc2c(cc1C[NH2+][C@H](c1cn(Cc3conc3C3CC3)nn1)C1CCCC1)OCO2
REMARK SMILES IDX 10 1 11 2 12 3 22 4 23 5 9 7 8 8 7 11 6 12 1 13 2 14 3 15
REMARK SMILES IDX 5 16 4 17 31 18 29 19 30 20 24 21 25 22 28 23 26 24 27 25
REMARK SMILES IDX 13 26 14 27 15 28 18 29 16 30 17 31 19 32 20 33 21 34
REMARK H PARENT 11 6 8 9 8 10
ROOT
ATOM     1   C9  UNL     1       0.190   0.798  -1.571  1.00  0.00     0.127 A   
ATOM     2   C10 UNL     1       1.128  -0.186  -1.795  1.00  0.00     0.046 A   
ATOM     3   N2  UNL     1       2.324   0.479  -1.739  1.00  0.00    -0.208 N   
ATOM     4   N4  UNL     1       2.129   1.796  -1.535  1.00  0.00    -0.076 NA  
ATOM     5   N5  UNL     1       0.826   2.005  -1.437  1.00  0.00    -0.132 NA  
ATOM     6   H9  UNL     1       1.063  -1.257  -1.926  1.00  0.00     0.083 HD  
ENDROOT
BRANCH   1   7
ATOM     7   C8  UNL     1      -1.287   0.706  -1.379  1.00  0.00     0.117 C   
BRANCH   7   8
ATOM     8   N1  UNL     1      -1.730   1.562  -0.208  1.00  0.00     0.249 N   
ATOM     9   H6  UNL     1      -1.483   2.533  -0.441  1.00  0.00     0.199 HD  
ATOM     10  H7  UNL     1      -2.747   1.520  -0.109  1.00  0.00     0.199 HD  
BRANCH   8  11
ATOM     11  C7  UNL     1      -1.110   1.262   1.123  1.00  0.00     0.164 C   
BRANCH  11  12
ATOM     12  C6  UNL     1      -1.274  -0.165   1.564  1.00  0.00    -0.002 A   
ATOM     13  C1  UNL     1      -0.135  -0.993   1.718  1.00  0.00     0.012 A   
ATOM     14  C2  UNL     1      -0.264  -2.331   2.105  1.00  0.00     0.037 A   
ATOM     15  C3  UNL     1      -1.532  -2.814   2.333  1.00  0.00     0.108 A   
ATOM     16  C5  UNL     1      -2.551  -0.693   1.818  1.00  0.00     0.045 A   
ATOM     17  C4  UNL     1      -2.642  -2.017   2.196  1.00  0.00     0.109 A   
ATOM     18  O3  UNL     1      -1.847  -4.079   2.712  1.00  0.00    -0.316 OA  
ATOM     19  O2  UNL     1      -3.796  -2.681   2.469  1.00  0.00    -0.316 OA  
ATOM     20  C23 UNL     1      -3.283  -3.983   2.834  1.00  0.00     0.337 C   
ENDBRANCH  11  12
ENDBRANCH   8  11
ENDBRANCH   7   8
BRANCH   7  21
ATOM     21  C18 UNL     1      -2.061   1.167  -2.630  1.00  0.00     0.043 C   
ATOM     22  C19 UNL     1      -1.790   0.303  -3.866  1.00  0.00     0.010 C   
ATOM     23  C22 UNL     1      -3.585   1.062  -2.503  1.00  0.00     0.010 C   
ATOM     24  C20 UNL     1      -2.911   0.684  -4.822  1.00  0.00     0.001 C   
ATOM     25  C21 UNL     1      -4.110   1.010  -3.937  1.00  0.00     0.001 C   
ENDBRANCH   7  21
ENDBRANCH   1   7
BRANCH   3  26
ATOM     26  C11 UNL     1       3.664  -0.089  -1.738  1.00  0.00     0.173 C   
BRANCH  26  27
ATOM     27  C12 UNL     1       3.886  -0.821  -0.468  1.00  0.00     0.021 A   
ATOM     28  C13 UNL     1       3.893  -2.182  -0.258  1.00  0.00     0.171 A   
ATOM     29  C14 UNL     1       4.108  -0.299   0.828  1.00  0.00     0.078 A   
ATOM     30  O1  UNL     1       4.049  -2.446   1.062  1.00  0.00    -0.221 OA  
ATOM     31  N3  UNL     1       4.162  -1.255   1.757  1.00  0.00    -0.134 NA  
BRANCH  29  32
ATOM     32  C15 UNL     1       4.219   1.210   1.176  1.00  0.00     0.041 C   
ATOM     33  C16 UNL     1       5.285   1.668   2.138  1.00  0.00     0.011 C   
ATOM     34  C17 UNL     1       5.406   1.995   0.679  1.00  0.00     0.011 C   
ENDBRANCH  29  32
ENDBRANCH  26  27
ENDBRANCH   3  26
TORSDOF 8
