REMARK SMILES CC(C)[C@H]([NH2+]Cc1ccc2c(c1)OCO2)c1cn(Cc2c(F)cccc2N([O-])[O-])nn1
REMARK SMILES IDX 16 1 17 2 18 3 30 4 31 5 4 7 2 8 1 9 3 10 5 11 6 14 7 15
REMARK SMILES IDX 8 16 12 17 9 18 11 19 10 20 13 21 15 22 14 23 19 24 20 25
REMARK SMILES IDX 21 26 26 27 23 28 25 29 24 30 22 31 27 32 28 33 29 34
REMARK H PARENT 17 6 5 12 5 13
ROOT
ATOM     1   C13 UNL     1      -1.081  -0.291  -0.332  1.00  0.00     0.127 A   
ATOM     2   C14 UNL     1      -0.835   0.958   0.194  1.00  0.00     0.046 A   
ATOM     3   N2  UNL     1      -1.549   0.973   1.361  1.00  0.00    -0.208 N   
ATOM     4   N4  UNL     1      -2.227  -0.180   1.522  1.00  0.00    -0.076 NA  
ATOM     5   N5  UNL     1      -1.941  -0.965   0.497  1.00  0.00    -0.132 NA  
ATOM     6   H18 UNL     1      -0.204   1.782  -0.111  1.00  0.00     0.083 HD  
ENDROOT
BRANCH   1   7
ATOM     7   C4  UNL     1      -0.505  -0.987  -1.522  1.00  0.00     0.117 C   
BRANCH   7   8
ATOM     8   C2  UNL     1      -1.384  -0.900  -2.797  1.00  0.00     0.037 C   
ATOM     9   C1  UNL     1      -1.503   0.544  -3.299  1.00  0.00     0.014 C   
ATOM     10  C3  UNL     1      -2.781  -1.512  -2.649  1.00  0.00     0.014 C   
ENDBRANCH   7   8
BRANCH   7  11
ATOM     11  N1  UNL     1      -0.269  -2.447  -1.198  1.00  0.00     0.249 N   
ATOM     12  H9  UNL     1      -1.135  -2.790  -0.760  1.00  0.00     0.199 HD  
ATOM     13  H10 UNL     1      -0.125  -2.985  -2.058  1.00  0.00     0.199 HD  
BRANCH  11  14
ATOM     14  C5  UNL     1       0.845  -2.738  -0.244  1.00  0.00     0.164 C   
BRANCH  14  15
ATOM     15  C6  UNL     1       2.201  -2.458  -0.830  1.00  0.00    -0.002 A   
ATOM     16  C7  UNL     1       2.947  -1.335  -0.399  1.00  0.00     0.012 A   
ATOM     17  C11 UNL     1       2.728  -3.295  -1.829  1.00  0.00     0.045 A   
ATOM     18  C8  UNL     1       4.195  -1.041  -0.960  1.00  0.00     0.037 A   
ATOM     19  C10 UNL     1       3.961  -2.978  -2.359  1.00  0.00     0.109 A   
ATOM     20  C9  UNL     1       4.673  -1.881  -1.940  1.00  0.00     0.108 A   
ATOM     21  O1  UNL     1       4.607  -3.678  -3.328  1.00  0.00    -0.316 OA  
ATOM     22  O2  UNL     1       5.856  -1.751  -2.594  1.00  0.00    -0.316 OA  
ATOM     23  C12 UNL     1       5.826  -2.910  -3.454  1.00  0.00     0.337 C   
ENDBRANCH  14  15
ENDBRANCH  11  14
ENDBRANCH   7  11
ENDBRANCH   1   7
BRANCH   3  24
ATOM     24  C15 UNL     1      -1.543   1.993   2.402  1.00  0.00     0.174 C   
BRANCH  24  25
ATOM     25  C16 UNL     1      -1.235   1.439   3.774  1.00  0.00     0.036 A   
ATOM     26  C17 UNL     1      -2.139   1.696   4.810  1.00  0.00     0.130 A   
ATOM     27  C21 UNL     1      -0.098   0.676   4.108  1.00  0.00     0.125 A   
ATOM     28  C18 UNL     1      -1.944   1.212   6.104  1.00  0.00     0.040 A   
ATOM     29  C20 UNL     1       0.112   0.173   5.402  1.00  0.00     0.032 A   
ATOM     30  C19 UNL     1      -0.819   0.447   6.401  1.00  0.00     0.005 A   
ATOM     31  F1  UNL     1      -3.235   2.428   4.565  1.00  0.00    -0.207 F   
BRANCH  27  32
ATOM     32  N3  UNL     1       0.915   0.371   3.109  1.00  0.00     0.092 N   
ATOM     33  O3  UNL     1       1.380   1.320   2.463  1.00  0.00    -0.138 OA  
ATOM     34  O4  UNL     1       1.215  -0.818   2.937  1.00  0.00    -0.138 OA  
ENDBRANCH  27  32
ENDBRANCH  24  25
ENDBRANCH   3  24
TORSDOF 8
