REMARK SMILES OC[C@H](c1cc(F)ccn1)n1cc([C@@H]([NH2+]Cc2ccc3c(c2)OCO3)C2CCCCC2)nn1
REMARK SMILES IDX 11 1 12 2 13 3 32 4 33 5 3 7 2 8 1 9 4 11 5 12 10 13 6 14
REMARK SMILES IDX 9 15 8 16 7 17 14 18 15 19 16 22 17 23 18 24 22 25 19 26
REMARK SMILES IDX 21 27 20 28 23 29 25 30 24 31 26 32 27 33 31 34 28 35 30 36
REMARK SMILES IDX 29 37
REMARK H PARENT 12 6 1 10 15 20 15 21
ROOT
ATOM     1   N2  UNL     1       0.108  -0.780  -2.040  1.00  0.00    -0.201 N   
ATOM     2   C8  UNL     1      -0.213  -0.407  -0.761  1.00  0.00     0.046 A   
ATOM     3   C9  UNL     1       0.946  -0.605  -0.045  1.00  0.00     0.127 A   
ATOM     4   N4  UNL     1       1.920  -1.050  -0.897  1.00  0.00    -0.132 NA  
ATOM     5   N5  UNL     1       1.401  -1.149  -2.111  1.00  0.00    -0.075 NA  
ATOM     6   H8  UNL     1      -1.200  -0.044  -0.509  1.00  0.00     0.083 HD  
ENDROOT
BRANCH   1   7
ATOM     7   C2  UNL     1      -0.720  -0.765  -3.240  1.00  0.00     0.174 C   
BRANCH   7   8
ATOM     8   C1  UNL     1      -1.113   0.669  -3.646  1.00  0.00     0.187 C   
BRANCH   8   9
ATOM     9   O1  UNL     1      -1.903   1.342  -2.660  1.00  0.00    -0.394 OA  
ATOM     10  H1  UNL     1      -2.720   0.803  -2.567  1.00  0.00     0.210 HD  
ENDBRANCH   8   9
ENDBRANCH   7   8
BRANCH   7  11
ATOM     11  C3  UNL     1      -1.909  -1.694  -3.062  1.00  0.00     0.068 A   
ATOM     12  C4  UNL     1      -1.798  -3.039  -3.398  1.00  0.00     0.065 A   
ATOM     13  N1  UNL     1      -3.058  -1.173  -2.540  1.00  0.00    -0.259 NA  
ATOM     14  C5  UNL     1      -2.906  -3.853  -3.211  1.00  0.00     0.126 A   
ATOM     15  C7  UNL     1      -4.116  -2.006  -2.379  1.00  0.00     0.114 A   
ATOM     16  C6  UNL     1      -4.089  -3.348  -2.701  1.00  0.00     0.059 A   
ATOM     17  F1  UNL     1      -2.827  -5.151  -3.534  1.00  0.00    -0.207 F   
ENDBRANCH   7  11
ENDBRANCH   1   7
BRANCH   3  18
ATOM     18  C10 UNL     1       1.291  -0.324   1.382  1.00  0.00     0.117 C   
BRANCH  18  19
ATOM     19  N3  UNL     1       1.272   1.158   1.659  1.00  0.00     0.249 N   
ATOM     20  H10 UNL     1       0.387   1.563   1.320  1.00  0.00     0.199 HD  
ATOM     21  H11 UNL     1       1.296   1.329   2.671  1.00  0.00     0.199 HD  
BRANCH  19  22
ATOM     22  C11 UNL     1       2.393   1.920   1.036  1.00  0.00     0.164 C   
BRANCH  22  23
ATOM     23  C12 UNL     1       2.288   3.380   1.381  1.00  0.00    -0.002 A   
ATOM     24  C13 UNL     1       2.782   3.862   2.618  1.00  0.00     0.012 A   
ATOM     25  C17 UNL     1       1.645   4.264   0.497  1.00  0.00     0.045 A   
ATOM     26  C14 UNL     1       2.642   5.209   2.971  1.00  0.00     0.037 A   
ATOM     27  C16 UNL     1       1.534   5.588   0.870  1.00  0.00     0.109 A   
ATOM     28  C15 UNL     1       2.013   6.046   2.074  1.00  0.00     0.108 A   
ATOM     29  O2  UNL     1       0.959   6.574   0.131  1.00  0.00    -0.316 OA  
ATOM     30  O3  UNL     1       1.791   7.375   2.249  1.00  0.00    -0.316 OA  
ATOM     31  C18 UNL     1       1.175   7.720   0.985  1.00  0.00     0.337 C   
ENDBRANCH  22  23
ENDBRANCH  19  22
ENDBRANCH  18  19
BRANCH  18  32
ATOM     32  C19 UNL     1       0.444  -1.062   2.451  1.00  0.00     0.043 C   
ATOM     33  C20 UNL     1       0.501  -2.590   2.261  1.00  0.00     0.010 C   
ATOM     34  C24 UNL     1      -1.018  -0.596   2.573  1.00  0.00     0.010 C   
ATOM     35  C21 UNL     1      -0.239  -3.324   3.381  1.00  0.00     0.001 C   
ATOM     36  C23 UNL     1      -1.754  -1.333   3.692  1.00  0.00     0.001 C   
ATOM     37  C22 UNL     1      -1.681  -2.845   3.512  1.00  0.00     0.000 C   
ENDBRANCH  18  32
ENDBRANCH   3  18
TORSDOF 9
