REMARK SMILES OC[C@@H](c1cc(F)ccn1)n1cc([C@@H]([NH2+]Cc2ccc3c(c2)OCO3)C2CCCCC2)nn1
REMARK SMILES IDX 11 1 12 2 13 3 32 4 33 5 3 7 2 8 1 9 4 11 5 12 10 13 6 14
REMARK SMILES IDX 9 15 8 16 7 17 14 18 15 19 16 22 17 23 18 24 22 25 19 26
REMARK SMILES IDX 21 27 20 28 23 29 25 30 24 31 26 32 27 33 31 34 28 35 30 36
REMARK SMILES IDX 29 37
REMARK H PARENT 12 6 1 10 15 20 15 21
ROOT
ATOM     1   N2  UNL     1      -1.927  -2.165  -1.950  1.00  0.00    -0.201 N   
ATOM     2   C8  UNL     1      -1.014  -1.778  -1.006  1.00  0.00     0.046 A   
ATOM     3   C9  UNL     1      -1.084  -0.405  -1.007  1.00  0.00     0.127 A   
ATOM     4   N4  UNL     1      -2.001  -0.004  -1.944  1.00  0.00    -0.132 NA  
ATOM     5   N5  UNL     1      -2.520  -1.085  -2.502  1.00  0.00    -0.075 NA  
ATOM     6   H8  UNL     1      -0.407  -2.491  -0.464  1.00  0.00     0.083 HD  
ENDROOT
BRANCH   1   7
ATOM     7   C2  UNL     1      -2.259  -3.503  -2.432  1.00  0.00     0.174 C   
BRANCH   7   8
ATOM     8   C1  UNL     1      -1.295  -3.930  -3.554  1.00  0.00     0.187 C   
BRANCH   8   9
ATOM     9   O1  UNL     1       0.067  -3.995  -3.122  1.00  0.00    -0.394 OA  
ATOM     10  H1  UNL     1       0.098  -4.708  -2.446  1.00  0.00     0.210 HD  
ENDBRANCH   8   9
ENDBRANCH   7   8
BRANCH   7  11
ATOM     11  C3  UNL     1      -2.339  -4.496  -1.283  1.00  0.00     0.068 A   
ATOM     12  C4  UNL     1      -3.480  -4.554  -0.488  1.00  0.00     0.065 A   
ATOM     13  N1  UNL     1      -1.256  -5.288  -1.044  1.00  0.00    -0.259 NA  
ATOM     14  C5  UNL     1      -3.501  -5.465   0.557  1.00  0.00     0.126 A   
ATOM     15  C7  UNL     1      -1.327  -6.172  -0.019  1.00  0.00     0.114 A   
ATOM     16  C6  UNL     1      -2.423  -6.295   0.807  1.00  0.00     0.059 A   
ATOM     17  F1  UNL     1      -4.585  -5.541   1.338  1.00  0.00    -0.207 F   
ENDBRANCH   7  11
ENDBRANCH   1   7
BRANCH   3  18
ATOM     18  C10 UNL     1      -0.298   0.621  -0.252  1.00  0.00     0.117 C   
BRANCH  18  19
ATOM     19  N3  UNL     1       0.097   1.697  -1.237  1.00  0.00     0.249 N   
ATOM     20  H10 UNL     1      -0.768   2.069  -1.653  1.00  0.00     0.199 HD  
ATOM     21  H11 UNL     1       0.554   1.215  -2.022  1.00  0.00     0.199 HD  
BRANCH  19  22
ATOM     22  C11 UNL     1       0.978   2.805  -0.792  1.00  0.00     0.164 C   
BRANCH  22  23
ATOM     23  C12 UNL     1       2.298   2.343  -0.240  1.00  0.00    -0.002 A   
ATOM     24  C13 UNL     1       2.609   2.544   1.127  1.00  0.00     0.012 A   
ATOM     25  C17 UNL     1       3.232   1.699  -1.072  1.00  0.00     0.045 A   
ATOM     26  C14 UNL     1       3.822   2.100   1.663  1.00  0.00     0.037 A   
ATOM     27  C16 UNL     1       4.418   1.272  -0.511  1.00  0.00     0.109 A   
ATOM     28  C15 UNL     1       4.704   1.464   0.818  1.00  0.00     0.108 A   
ATOM     29  O2  UNL     1       5.417   0.629  -1.171  1.00  0.00    -0.316 OA  
ATOM     30  O3  UNL     1       5.920   0.966   1.164  1.00  0.00    -0.316 OA  
ATOM     31  C18 UNL     1       6.377   0.448  -0.105  1.00  0.00     0.337 C   
ENDBRANCH  22  23
ENDBRANCH  19  22
ENDBRANCH  18  19
BRANCH  18  32
ATOM     32  C19 UNL     1      -1.046   1.213   0.971  1.00  0.00     0.043 C   
ATOM     33  C20 UNL     1      -2.331   1.991   0.626  1.00  0.00     0.010 C   
ATOM     34  C24 UNL     1      -1.353   0.127   2.024  1.00  0.00     0.010 C   
ATOM     35  C21 UNL     1      -2.982   2.582   1.877  1.00  0.00     0.001 C   
ATOM     36  C23 UNL     1      -2.004   0.720   3.272  1.00  0.00     0.001 C   
ATOM     37  C22 UNL     1      -3.263   1.511   2.928  1.00  0.00     0.000 C   
ENDBRANCH  18  32
ENDBRANCH   3  18
TORSDOF 9
