REMARK SMILES FC(F)(F)c1nccc(-n2cc([C@@H]([NH2+]Cc3ccc4c(c3)OCO4)C3CCCCC3)nn2)n1
REMARK SMILES IDX 10 1 11 2 12 3 31 4 32 5 9 6 5 7 6 8 33 9 7 10 8 11 2 12
REMARK SMILES IDX 1 13 3 14 4 15 13 16 14 17 15 20 16 21 17 22 21 23 18 24
REMARK SMILES IDX 20 25 19 26 22 27 24 28 23 29 25 30 26 31 30 32 27 33 29 34
REMARK SMILES IDX 28 35
REMARK H PARENT 14 18 14 19
ROOT
ATOM     1   N2  UNL     1       1.510  -1.653  -0.326  1.00  0.00    -0.162 N   
ATOM     2   C6  UNL     1       0.224  -1.254  -0.627  1.00  0.00     0.137 A   
ATOM     3   C7  UNL     1      -0.585  -1.981   0.214  1.00  0.00     0.128 A   
ATOM     4   N4  UNL     1       0.202  -2.816   0.966  1.00  0.00    -0.131 NA  
ATOM     5   N5  UNL     1       1.466  -2.616   0.627  1.00  0.00    -0.070 NA  
ENDROOT
BRANCH   1   6
ATOM     6   C5  UNL     1       2.714  -1.131  -0.866  1.00  0.00     0.150 A   
ATOM     7   C2  UNL     1       3.758   0.357  -2.304  1.00  0.00     0.236 A   
ATOM     8   N1  UNL     1       4.981  -0.054  -1.896  1.00  0.00    -0.233 NA  
ATOM     9   N6  UNL     1       2.607  -0.151  -1.798  1.00  0.00    -0.207 NA  
ATOM     10  C3  UNL     1       5.037  -1.031  -0.972  1.00  0.00     0.117 A   
ATOM     11  C4  UNL     1       3.925  -1.615  -0.418  1.00  0.00     0.067 A   
BRANCH   7  12
ATOM     12  C1  UNL     1       3.666   1.501  -3.325  1.00  0.00     0.451 C   
ATOM     13  F1  UNL     1       2.549   1.424  -4.113  1.00  0.00    -0.163 F   
ATOM     14  F2  UNL     1       3.604   2.729  -2.726  1.00  0.00    -0.163 F   
ATOM     15  F3  UNL     1       4.719   1.559  -4.191  1.00  0.00    -0.163 F   
ENDBRANCH   7  12
ENDBRANCH   1   6
BRANCH   3  16
ATOM     16  C8  UNL     1      -2.055  -1.942   0.507  1.00  0.00     0.117 C   
BRANCH  16  17
ATOM     17  N3  UNL     1      -2.269  -1.516   1.948  1.00  0.00     0.249 N   
ATOM     18  H5  UNL     1      -1.595  -2.069   2.497  1.00  0.00     0.199 HD  
ATOM     19  H6  UNL     1      -3.193  -1.839   2.253  1.00  0.00     0.199 HD  
BRANCH  17  20
ATOM     20  C9  UNL     1      -2.101  -0.083   2.346  1.00  0.00     0.164 C   
BRANCH  20  21
ATOM     21  C10 UNL     1      -0.695   0.441   2.276  1.00  0.00    -0.002 A   
ATOM     22  C11 UNL     1       0.313  -0.073   3.129  1.00  0.00     0.012 A   
ATOM     23  C15 UNL     1      -0.363   1.445   1.349  1.00  0.00     0.045 A   
ATOM     24  C12 UNL     1       1.634   0.381   3.039  1.00  0.00     0.037 A   
ATOM     25  C14 UNL     1       0.948   1.869   1.285  1.00  0.00     0.109 A   
ATOM     26  C13 UNL     1       1.920   1.348   2.102  1.00  0.00     0.108 A   
ATOM     27  O1  UNL     1       1.436   2.803   0.428  1.00  0.00    -0.316 OA  
ATOM     28  O2  UNL     1       3.143   1.888   1.863  1.00  0.00    -0.316 OA  
ATOM     29  C16 UNL     1       2.823   2.852   0.836  1.00  0.00     0.337 C   
ENDBRANCH  20  21
ENDBRANCH  17  20
ENDBRANCH  16  17
BRANCH  16  30
ATOM     30  C17 UNL     1      -2.953  -1.156  -0.485  1.00  0.00     0.043 C   
ATOM     31  C18 UNL     1      -2.879  -1.771  -1.905  1.00  0.00     0.010 C   
ATOM     32  C22 UNL     1      -4.435  -1.130  -0.043  1.00  0.00     0.010 C   
ATOM     33  C19 UNL     1      -3.765  -1.029  -2.904  1.00  0.00     0.001 C   
ATOM     34  C21 UNL     1      -5.325  -0.391  -1.042  1.00  0.00     0.001 C   
ATOM     35  C20 UNL     1      -5.214  -0.980  -2.441  1.00  0.00     0.000 C   
ENDBRANCH  16  30
ENDBRANCH   3  16
TORSDOF 7
