REMARK SMILES COc1cc(Cn2cc([C@@H]([NH2+]Cc3ccc4c(c3)OCO4)C(C)C)nn2)cc(C)n1
REMARK SMILES IDX 7 1 8 2 9 3 25 4 26 5 6 7 5 8 3 9 4 10 30 11 28 12 27 13
REMARK SMILES IDX 29 14 2 15 1 16 10 17 11 18 12 21 13 22 14 23 18 24 15 25
REMARK SMILES IDX 17 26 16 27 19 28 21 29 20 30 22 31 23 32 24 33
REMARK H PARENT 8 6 11 19 11 20
ROOT
ATOM     1   N1  UNL     1      -0.848  -1.386   2.252  1.00  0.00    -0.208 N   
ATOM     2   C6  UNL     1      -0.527  -0.123   2.681  1.00  0.00     0.046 A   
ATOM     3   C7  UNL     1      -1.223   0.703   1.826  1.00  0.00     0.127 A   
ATOM     4   N3  UNL     1      -1.953  -0.063   0.952  1.00  0.00    -0.132 NA  
ATOM     5   N4  UNL     1      -1.723  -1.337   1.227  1.00  0.00    -0.076 NA  
ATOM     6   H7  UNL     1       0.188   0.055   3.474  1.00  0.00     0.083 HD  
ENDROOT
BRANCH   1   7
ATOM     7   C5  UNL     1      -0.244  -2.649   2.649  1.00  0.00     0.169 C   
BRANCH   7   8
ATOM     8   C4  UNL     1       1.058  -2.836   1.919  1.00  0.00    -0.023 A   
ATOM     9   C2  UNL     1       3.430  -2.590   1.767  1.00  0.00     0.167 A   
ATOM     10  C3  UNL     1       2.270  -2.493   2.516  1.00  0.00     0.060 A   
ATOM     11  N5  UNL     1       3.461  -2.990   0.479  1.00  0.00    -0.230 NA  
ATOM     12  C21 UNL     1       2.291  -3.347  -0.089  1.00  0.00     0.041 A   
ATOM     13  C20 UNL     1       1.078  -3.286   0.594  1.00  0.00     0.029 A   
ATOM     14  C22 UNL     1       2.336  -3.832  -1.509  1.00  0.00     0.067 C   
BRANCH   9  15
ATOM     15  O1  UNL     1       4.591  -2.208   2.402  1.00  0.00    -0.333 OA  
ATOM     16  C1  UNL     1       5.754  -2.421   1.613  1.00  0.00     0.205 C   
ENDBRANCH   9  15
ENDBRANCH   7   8
ENDBRANCH   1   7
BRANCH   3  17
ATOM     17  C8  UNL     1      -1.179   2.184   1.635  1.00  0.00     0.117 C   
BRANCH  17  18
ATOM     18  N2  UNL     1      -1.105   2.486   0.161  1.00  0.00     0.249 N   
ATOM     19  H9  UNL     1      -1.784   1.859  -0.296  1.00  0.00     0.199 HD  
ATOM     20  H10 UNL     1      -1.410   3.438  -0.047  1.00  0.00     0.199 HD  
BRANCH  18  21
ATOM     21  C9  UNL     1       0.223   2.237  -0.465  1.00  0.00     0.164 C   
BRANCH  21  22
ATOM     22  C10 UNL     1       0.117   2.233  -1.963  1.00  0.00    -0.002 A   
ATOM     23  C11 UNL     1       0.273   3.431  -2.703  1.00  0.00     0.012 A   
ATOM     24  C15 UNL     1      -0.189   1.037  -2.634  1.00  0.00     0.045 A   
ATOM     25  C12 UNL     1       0.142   3.434  -4.096  1.00  0.00     0.037 A   
ATOM     26  C14 UNL     1      -0.309   1.077  -4.007  1.00  0.00     0.109 A   
ATOM     27  C13 UNL     1      -0.147   2.240  -4.718  1.00  0.00     0.108 A   
ATOM     28  O2  UNL     1      -0.597   0.020  -4.803  1.00  0.00    -0.316 OA  
ATOM     29  O3  UNL     1      -0.311   2.058  -6.051  1.00  0.00    -0.316 OA  
ATOM     30  C16 UNL     1      -0.584   0.645  -6.105  1.00  0.00     0.337 C   
ENDBRANCH  21  22
ENDBRANCH  18  21
ENDBRANCH  17  18
BRANCH  17  31
ATOM     31  C17 UNL     1      -2.375   2.952   2.250  1.00  0.00     0.037 C   
ATOM     32  C18 UNL     1      -3.739   2.604   1.644  1.00  0.00     0.014 C   
ATOM     33  C19 UNL     1      -2.429   2.784   3.772  1.00  0.00     0.014 C   
ENDBRANCH  17  31
ENDBRANCH   3  17
TORSDOF 8
