REMARK SMILES CC(C)[C@H]([NH2+]Cc1ccc2c(c1)OCO2)c1cn(C[C@@H](O)c2cccc(Cl)c2)nn1
REMARK SMILES IDX 16 1 17 2 18 3 29 4 30 5 4 7 2 8 1 9 3 10 5 11 6 14 7 15
REMARK SMILES IDX 8 16 12 17 9 18 11 19 10 20 13 21 15 22 14 23 19 24 20 25
REMARK SMILES IDX 21 26 22 28 23 29 28 30 24 31 26 32 25 33 27 34
REMARK H PARENT 17 6 5 12 5 13 21 27
ROOT
ATOM     1   C13 UNL     1       1.164  -0.659   0.897  1.00  0.00     0.127 A   
ATOM     2   C14 UNL     1       2.419  -0.332   1.358  1.00  0.00     0.045 A   
ATOM     3   N2  UNL     1       2.256  -0.230   2.712  1.00  0.00    -0.209 N   
ATOM     4   N3  UNL     1       0.993  -0.526   3.069  1.00  0.00    -0.076 NA  
ATOM     5   N4  UNL     1       0.311  -0.777   1.966  1.00  0.00    -0.132 NA  
ATOM     6   H18 UNL     1       3.365  -0.132   0.870  1.00  0.00     0.083 HD  
ENDROOT
BRANCH   1   7
ATOM     7   C4  UNL     1       0.646  -0.871  -0.492  1.00  0.00     0.117 C   
BRANCH   7   8
ATOM     8   C2  UNL     1       0.526   0.464  -1.276  1.00  0.00     0.037 C   
ATOM     9   C1  UNL     1       0.320   0.227  -2.777  1.00  0.00     0.014 C   
ATOM     10  C3  UNL     1      -0.569   1.397  -0.741  1.00  0.00     0.014 C   
ENDBRANCH   7   8
BRANCH   7  11
ATOM     11  N1  UNL     1      -0.685  -1.573  -0.461  1.00  0.00     0.249 N   
ATOM     12  H9  UNL     1      -1.220  -1.429  -1.321  1.00  0.00     0.199 HD  
ATOM     13  H10 UNL     1      -1.231  -1.135   0.295  1.00  0.00     0.199 HD  
BRANCH  11  14
ATOM     14  C5  UNL     1      -0.633  -3.034  -0.169  1.00  0.00     0.164 C   
BRANCH  14  15
ATOM     15  C6  UNL     1      -2.021  -3.607  -0.128  1.00  0.00    -0.002 A   
ATOM     16  C7  UNL     1      -2.550  -4.293  -1.246  1.00  0.00     0.012 A   
ATOM     17  C11 UNL     1      -2.821  -3.420   1.012  1.00  0.00     0.045 A   
ATOM     18  C8  UNL     1      -3.854  -4.798  -1.229  1.00  0.00     0.037 A   
ATOM     19  C10 UNL     1      -4.104  -3.925   0.994  1.00  0.00     0.109 A   
ATOM     20  C9  UNL     1      -4.605  -4.596  -0.093  1.00  0.00     0.108 A   
ATOM     21  O1  UNL     1      -5.005  -3.827   2.006  1.00  0.00    -0.316 OA  
ATOM     22  O2  UNL     1      -5.884  -5.013   0.100  1.00  0.00    -0.316 OA  
ATOM     23  C12 UNL     1      -6.140  -4.513   1.430  1.00  0.00     0.337 C   
ENDBRANCH  14  15
ENDBRANCH  11  14
ENDBRANCH   7  11
ENDBRANCH   1   7
BRANCH   3  24
ATOM     24  C15 UNL     1       3.226   0.185   3.700  1.00  0.00     0.170 C   
BRANCH  24  25
ATOM     25  C16 UNL     1       2.917   1.562   4.299  1.00  0.00     0.164 C   
BRANCH  25  26
ATOM     26  O3  UNL     1       3.904   1.861   5.292  1.00  0.00    -0.387 OA  
ATOM     27  H22 UNL     1       3.737   2.774   5.594  1.00  0.00     0.211 HD  
ENDBRANCH  25  26
BRANCH  25  28
ATOM     28  C17 UNL     1       2.908   2.665   3.258  1.00  0.00    -0.016 A   
ATOM     29  C18 UNL     1       4.103   3.187   2.739  1.00  0.00     0.006 A   
ATOM     30  C22 UNL     1       1.687   3.154   2.765  1.00  0.00     0.027 A   
ATOM     31  C19 UNL     1       4.079   4.177   1.754  1.00  0.00     0.002 A   
ATOM     32  C21 UNL     1       1.670   4.138   1.776  1.00  0.00     0.041 A   
ATOM     33  C20 UNL     1       2.861   4.652   1.269  1.00  0.00     0.020 A   
ATOM     34  CL1 UNL     1       0.165   4.704   1.166  1.00  0.00    -0.084 Cl  
ENDBRANCH  25  28
ENDBRANCH  24  25
ENDBRANCH   3  24
TORSDOF 9
