REMARK SMILES CC(C)[C@H]([NH2+]Cc1ccc2c(c1)OCO2)c1cn(C[C@H](O)c2cccc(Cl)c2)nn1
REMARK SMILES IDX 16 1 17 2 18 3 29 4 30 5 4 7 2 8 1 9 3 10 5 11 6 14 7 15
REMARK SMILES IDX 8 16 12 17 9 18 11 19 10 20 13 21 15 22 14 23 19 24 20 25
REMARK SMILES IDX 21 26 22 28 23 29 28 30 24 31 26 32 25 33 27 34
REMARK H PARENT 17 6 5 12 5 13 21 27
ROOT
ATOM     1   C13 UNL     1      -1.649  -0.166   1.626  1.00  0.00     0.127 A   
ATOM     2   C14 UNL     1      -0.561  -0.924   1.996  1.00  0.00     0.045 A   
ATOM     3   N2  UNL     1      -1.107  -2.105   2.413  1.00  0.00    -0.209 N   
ATOM     4   N3  UNL     1      -2.446  -2.087   2.289  1.00  0.00    -0.076 NA  
ATOM     5   N4  UNL     1      -2.792  -0.902   1.812  1.00  0.00    -0.132 NA  
ATOM     6   H18 UNL     1       0.506  -0.744   1.995  1.00  0.00     0.083 HD  
ENDROOT
BRANCH   1   7
ATOM     7   C4  UNL     1      -1.734   1.202   1.033  1.00  0.00     0.117 C   
BRANCH   7   8
ATOM     8   C2  UNL     1      -1.917   2.337   2.077  1.00  0.00     0.037 C   
ATOM     9   C1  UNL     1      -0.690   2.469   2.986  1.00  0.00     0.014 C   
ATOM     10  C3  UNL     1      -3.182   2.213   2.934  1.00  0.00     0.014 C   
ENDBRANCH   7   8
BRANCH   7  11
ATOM     11  N1  UNL     1      -2.873   1.284   0.037  1.00  0.00     0.249 N   
ATOM     12  H9  UNL     1      -3.717   0.968   0.532  1.00  0.00     0.199 HD  
ATOM     13  H10 UNL     1      -3.024   2.258  -0.242  1.00  0.00     0.199 HD  
BRANCH  11  14
ATOM     14  C5  UNL     1      -2.754   0.435  -1.187  1.00  0.00     0.164 C   
BRANCH  14  15
ATOM     15  C6  UNL     1      -1.568   0.782  -2.043  1.00  0.00    -0.002 A   
ATOM     16  C7  UNL     1      -1.573   1.947  -2.846  1.00  0.00     0.012 A   
ATOM     17  C11 UNL     1      -0.427  -0.040  -2.022  1.00  0.00     0.045 A   
ATOM     18  C8  UNL     1      -0.456   2.290  -3.617  1.00  0.00     0.037 A   
ATOM     19  C10 UNL     1       0.655   0.328  -2.792  1.00  0.00     0.109 A   
ATOM     20  C9  UNL     1       0.643   1.461  -3.566  1.00  0.00     0.108 A   
ATOM     21  O1  UNL     1       1.829  -0.349  -2.880  1.00  0.00    -0.316 OA  
ATOM     22  O2  UNL     1       1.808   1.639  -4.241  1.00  0.00    -0.316 OA  
ATOM     23  C12 UNL     1       2.554   0.477  -3.817  1.00  0.00     0.337 C   
ENDBRANCH  14  15
ENDBRANCH  11  14
ENDBRANCH   7  11
ENDBRANCH   1   7
BRANCH   3  24
ATOM     24  C15 UNL     1      -0.423  -3.277   2.906  1.00  0.00     0.170 C   
BRANCH  24  25
ATOM     25  C16 UNL     1      -0.531  -4.485   1.970  1.00  0.00     0.164 C   
BRANCH  25  26
ATOM     26  O3  UNL     1       0.215  -5.564   2.537  1.00  0.00    -0.387 OA  
ATOM     27  H22 UNL     1       0.309  -6.252   1.852  1.00  0.00     0.211 HD  
ENDBRANCH  25  26
BRANCH  25  28
ATOM     28  C17 UNL     1      -0.015  -4.227   0.568  1.00  0.00    -0.016 A   
ATOM     29  C18 UNL     1      -0.885  -4.314  -0.531  1.00  0.00     0.006 A   
ATOM     30  C22 UNL     1       1.331  -3.901   0.339  1.00  0.00     0.027 A   
ATOM     31  C19 UNL     1      -0.421  -4.077  -1.827  1.00  0.00     0.002 A   
ATOM     32  C21 UNL     1       1.786  -3.655  -0.957  1.00  0.00     0.041 A   
ATOM     33  C20 UNL     1       0.916  -3.743  -2.040  1.00  0.00     0.020 A   
ATOM     34  CL1 UNL     1       3.433  -3.230  -1.215  1.00  0.00    -0.084 Cl  
ENDBRANCH  25  28
ENDBRANCH  24  25
ENDBRANCH   3  24
TORSDOF 9
