REMARK SMILES C[C@H](c1ccc(F)nc1)n1cc([C@@H]([NH2+]Cc2ccc3c(c2)OCO3)C2CCCCC2)nn1
REMARK SMILES IDX 10 1 11 2 12 3 31 4 32 5 2 7 1 8 3 9 4 10 9 11 5 12 8 13
REMARK SMILES IDX 6 14 7 15 13 16 14 17 15 20 16 21 17 22 21 23 18 24 20 25
REMARK SMILES IDX 19 26 22 27 24 28 23 29 25 30 26 31 30 32 27 33 29 34 28 35
REMARK H PARENT 11 6 14 18 14 19
ROOT
ATOM     1   N2  UNL     1      -1.014  -1.384  -0.235  1.00  0.00    -0.205 N   
ATOM     2   C8  UNL     1      -0.253  -0.404   0.346  1.00  0.00     0.046 A   
ATOM     3   C9  UNL     1       0.184   0.356  -0.715  1.00  0.00     0.127 A   
ATOM     4   N4  UNL     1      -0.315  -0.171  -1.880  1.00  0.00    -0.132 NA  
ATOM     5   N5  UNL     1      -1.041  -1.232  -1.575  1.00  0.00    -0.075 NA  
ATOM     6   H8  UNL     1      -0.093  -0.347   1.414  1.00  0.00     0.083 HD  
ENDROOT
BRANCH   1   7
ATOM     7   C2  UNL     1      -1.772  -2.470   0.394  1.00  0.00     0.128 C   
ATOM     8   C1  UNL     1      -3.158  -1.965   0.806  1.00  0.00     0.036 C   
BRANCH   7   9
ATOM     9   C3  UNL     1      -0.960  -3.131   1.493  1.00  0.00    -0.007 A   
ATOM     10  C4  UNL     1      -1.228  -2.985   2.860  1.00  0.00     0.012 A   
ATOM     11  C7  UNL     1       0.138  -3.922   1.149  1.00  0.00     0.120 A   
ATOM     12  C5  UNL     1      -0.411  -3.616   3.798  1.00  0.00     0.061 A   
ATOM     13  N1  UNL     1       0.951  -4.531   2.039  1.00  0.00    -0.228 NA  
ATOM     14  C6  UNL     1       0.653  -4.369   3.342  1.00  0.00     0.212 A   
ATOM     15  F1  UNL     1       1.452  -4.962   4.239  1.00  0.00    -0.185 F   
ENDBRANCH   7   9
ENDBRANCH   1   7
BRANCH   3  16
ATOM     16  C10 UNL     1       1.089   1.545  -0.783  1.00  0.00     0.117 C   
BRANCH  16  17
ATOM     17  N3  UNL     1       1.839   1.534  -2.103  1.00  0.00     0.249 N   
ATOM     18  H10 UNL     1       1.888   2.477  -2.500  1.00  0.00     0.199 HD  
ATOM     19  H11 UNL     1       1.257   0.982  -2.753  1.00  0.00     0.199 HD  
BRANCH  17  20
ATOM     20  C11 UNL     1       3.209   0.951  -2.083  1.00  0.00     0.164 C   
BRANCH  20  21
ATOM     21  C12 UNL     1       3.260  -0.504  -1.713  1.00  0.00    -0.002 A   
ATOM     22  C13 UNL     1       2.751  -1.488  -2.595  1.00  0.00     0.012 A   
ATOM     23  C17 UNL     1       3.808  -0.901  -0.481  1.00  0.00     0.045 A   
ATOM     24  C14 UNL     1       2.784  -2.845  -2.256  1.00  0.00     0.037 A   
ATOM     25  C16 UNL     1       3.830  -2.247  -0.181  1.00  0.00     0.109 A   
ATOM     26  C15 UNL     1       3.333  -3.192  -1.043  1.00  0.00     0.108 A   
ATOM     27  O1  UNL     1       4.330  -2.794   0.958  1.00  0.00    -0.316 OA  
ATOM     28  O2  UNL     1       3.456  -4.454  -0.557  1.00  0.00    -0.316 OA  
ATOM     29  C18 UNL     1       4.134  -4.203   0.694  1.00  0.00     0.337 C   
ENDBRANCH  20  21
ENDBRANCH  17  20
ENDBRANCH  16  17
BRANCH  16  30
ATOM     30  C19 UNL     1       0.356   2.908  -0.649  1.00  0.00     0.043 C   
ATOM     31  C20 UNL     1      -0.226   3.105   0.765  1.00  0.00     0.010 C   
ATOM     32  C24 UNL     1      -0.739   3.144  -1.709  1.00  0.00     0.010 C   
ATOM     33  C21 UNL     1      -0.872   4.481   0.920  1.00  0.00     0.001 C   
ATOM     34  C23 UNL     1      -1.387   4.519  -1.549  1.00  0.00     0.001 C   
ATOM     35  C22 UNL     1      -1.939   4.723  -0.142  1.00  0.00     0.000 C   
ENDBRANCH  16  30
ENDBRANCH   3  16
TORSDOF 7
