REMARK SMILES C[C@@H](c1ccc(F)nc1)n1cc([C@@H]([NH2+]Cc2ccc3c(c2)OCO3)C2CCCCC2)nn1
REMARK SMILES IDX 10 1 11 2 12 3 31 4 32 5 2 7 1 8 3 9 4 10 9 11 5 12 8 13
REMARK SMILES IDX 6 14 7 15 13 16 14 17 15 20 16 21 17 22 21 23 18 24 20 25
REMARK SMILES IDX 19 26 22 27 24 28 23 29 25 30 26 31 30 32 27 33 29 34 28 35
REMARK H PARENT 11 6 14 18 14 19
ROOT
ATOM     1   N2  UNL     1       1.680  -0.733  -2.396  1.00  0.00    -0.205 N   
ATOM     2   C8  UNL     1       0.639  -0.453  -1.550  1.00  0.00     0.046 A   
ATOM     3   C9  UNL     1       1.252  -0.072  -0.377  1.00  0.00     0.127 A   
ATOM     4   N4  UNL     1       2.612  -0.166  -0.531  1.00  0.00    -0.132 NA  
ATOM     5   N5  UNL     1       2.860  -0.584  -1.761  1.00  0.00    -0.075 NA  
ATOM     6   H8  UNL     1      -0.396  -0.520  -1.857  1.00  0.00     0.083 HD  
ENDROOT
BRANCH   1   7
ATOM     7   C2  UNL     1       1.644  -1.126  -3.806  1.00  0.00     0.128 C   
ATOM     8   C1  UNL     1       1.013  -2.511  -3.974  1.00  0.00     0.036 C   
BRANCH   7   9
ATOM     9   C3  UNL     1       1.018  -0.020  -4.632  1.00  0.00    -0.007 A   
ATOM     10  C4  UNL     1       1.798   1.064  -5.064  1.00  0.00     0.012 A   
ATOM     11  C7  UNL     1      -0.337   0.012  -4.959  1.00  0.00     0.120 A   
ATOM     12  C5  UNL     1       1.211   2.097  -5.790  1.00  0.00     0.061 A   
ATOM     13  N1  UNL     1      -0.932   1.011  -5.645  1.00  0.00    -0.228 NA  
ATOM     14  C6  UNL     1      -0.144   2.026  -6.052  1.00  0.00     0.212 A   
ATOM     15  F1  UNL     1      -0.719   3.023  -6.737  1.00  0.00    -0.185 F   
ENDBRANCH   7   9
ENDBRANCH   1   7
BRANCH   3  16
ATOM     16  C10 UNL     1       0.684   0.388   0.930  1.00  0.00     0.117 C   
BRANCH  16  17
ATOM     17  N3  UNL     1       1.702   0.219   2.033  1.00  0.00     0.249 N   
ATOM     18  H10 UNL     1       1.495   0.830   2.826  1.00  0.00     0.199 HD  
ATOM     19  H11 UNL     1       2.602   0.530   1.638  1.00  0.00     0.199 HD  
BRANCH  17  20
ATOM     20  C11 UNL     1       1.902  -1.173   2.532  1.00  0.00     0.164 C   
BRANCH  20  21
ATOM     21  C12 UNL     1       0.743  -1.661   3.358  1.00  0.00    -0.002 A   
ATOM     22  C13 UNL     1       0.538  -1.164   4.668  1.00  0.00     0.012 A   
ATOM     23  C17 UNL     1      -0.165  -2.589   2.821  1.00  0.00     0.045 A   
ATOM     24  C14 UNL     1      -0.559  -1.580   5.430  1.00  0.00     0.037 A   
ATOM     25  C16 UNL     1      -1.236  -2.976   3.598  1.00  0.00     0.109 A   
ATOM     26  C15 UNL     1      -1.429  -2.486   4.865  1.00  0.00     0.108 A   
ATOM     27  O1  UNL     1      -2.207  -3.852   3.226  1.00  0.00    -0.316 OA  
ATOM     28  O2  UNL     1      -2.543  -2.994   5.454  1.00  0.00    -0.316 OA  
ATOM     29  C18 UNL     1      -3.021  -3.882   4.421  1.00  0.00     0.337 C   
ENDBRANCH  20  21
ENDBRANCH  17  20
ENDBRANCH  16  17
BRANCH  16  30
ATOM     30  C19 UNL     1       0.197   1.862   0.865  1.00  0.00     0.043 C   
ATOM     31  C20 UNL     1       1.334   2.891   0.712  1.00  0.00     0.010 C   
ATOM     32  C24 UNL     1      -0.691   2.223   2.073  1.00  0.00     0.010 C   
ATOM     33  C21 UNL     1       0.790   4.316   0.612  1.00  0.00     0.001 C   
ATOM     34  C23 UNL     1      -1.228   3.649   1.970  1.00  0.00     0.001 C   
ATOM     35  C22 UNL     1      -0.102   4.663   1.800  1.00  0.00     0.000 C   
ENDBRANCH  16  30
ENDBRANCH   3  16
TORSDOF 7
