REMARK SMILES CC(C)[C@H]([NH2+]Cc1ccc2c(c1)OCO2)c1cn(-c2nc(Cl)ccc2O)nn1
REMARK SMILES IDX 16 1 17 2 18 3 27 4 28 5 4 6 2 7 1 8 3 9 5 10 6 13 7 14 8 15
REMARK SMILES IDX 12 16 9 17 11 18 10 19 13 20 15 21 14 22 19 23 20 24 25 25
REMARK SMILES IDX 21 26 24 27 23 28 22 29 26 30
REMARK H PARENT 5 11 5 12 26 31
ROOT
ATOM     1   C13 UNL     1       0.330   1.136   1.146  1.00  0.00     0.127 A   
ATOM     2   C14 UNL     1       0.642   1.836   2.288  1.00  0.00     0.137 A   
ATOM     3   N2  UNL     1      -0.287   2.857   2.349  1.00  0.00    -0.160 N   
ATOM     4   N4  UNL     1      -1.138   2.745   1.294  1.00  0.00    -0.069 NA  
ATOM     5   N5  UNL     1      -0.768   1.708   0.559  1.00  0.00    -0.131 NA  
ENDROOT
BRANCH   1   6
ATOM     6   C4  UNL     1       0.971  -0.070   0.531  1.00  0.00     0.117 C   
BRANCH   6   7
ATOM     7   C2  UNL     1       2.241   0.297  -0.283  1.00  0.00     0.037 C   
ATOM     8   C1  UNL     1       3.073  -0.944  -0.629  1.00  0.00     0.014 C   
ATOM     9   C3  UNL     1       1.951   1.097  -1.559  1.00  0.00     0.014 C   
ENDBRANCH   6   7
BRANCH   6  10
ATOM     10  N1  UNL     1      -0.007  -0.812  -0.339  1.00  0.00     0.249 N   
ATOM     11  H9  UNL     1       0.466  -1.417  -1.017  1.00  0.00     0.199 HD  
ATOM     12  H10 UNL     1      -0.518  -0.108  -0.893  1.00  0.00     0.199 HD  
BRANCH  10  13
ATOM     13  C5  UNL     1      -1.023  -1.623   0.390  1.00  0.00     0.164 C   
BRANCH  13  14
ATOM     14  C6  UNL     1      -1.964  -2.275  -0.582  1.00  0.00    -0.002 A   
ATOM     15  C7  UNL     1      -1.685  -3.564  -1.096  1.00  0.00     0.012 A   
ATOM     16  C11 UNL     1      -3.101  -1.580  -1.032  1.00  0.00     0.045 A   
ATOM     17  C8  UNL     1      -2.532  -4.159  -2.038  1.00  0.00     0.037 A   
ATOM     18  C10 UNL     1      -3.914  -2.197  -1.960  1.00  0.00     0.109 A   
ATOM     19  C9  UNL     1      -3.638  -3.450  -2.449  1.00  0.00     0.108 A   
ATOM     20  O1  UNL     1      -5.046  -1.668  -2.494  1.00  0.00    -0.316 OA  
ATOM     21  O2  UNL     1      -4.561  -3.867  -3.354  1.00  0.00    -0.316 OA  
ATOM     22  C12 UNL     1      -5.474  -2.749  -3.353  1.00  0.00     0.337 C   
ENDBRANCH  13  14
ENDBRANCH  10  13
ENDBRANCH   6  10
ENDBRANCH   1   6
BRANCH   3  23
ATOM     23  C15 UNL     1      -0.380   3.876   3.330  1.00  0.00     0.177 A   
ATOM     24  N3  UNL     1       0.542   3.831   4.331  1.00  0.00    -0.216 NA  
ATOM     25  C19 UNL     1      -1.370   4.861   3.254  1.00  0.00     0.114 A   
ATOM     26  C16 UNL     1       0.466   4.800   5.270  1.00  0.00     0.131 A   
ATOM     27  C18 UNL     1      -1.408   5.839   4.245  1.00  0.00     0.040 A   
ATOM     28  C17 UNL     1      -0.473   5.814   5.274  1.00  0.00     0.044 A   
ATOM     29  CL1 UNL     1       1.654   4.683   6.498  1.00  0.00    -0.062 Cl  
BRANCH  25  30
ATOM     30  O3  UNL     1      -2.326   4.965   2.286  1.00  0.00    -0.357 OA  
ATOM     31  H21 UNL     1      -2.220   4.257   1.619  1.00  0.00     0.218 HD  
ENDBRANCH  25  30
ENDBRANCH   3  23
TORSDOF 7
