REMARK SMILES CC(C)(C)[C@H]([NH2+]Cc1ccc2c(c1)OCO2)c1cn(-c2cccc(S(N)(=O)=O)c2)nn1
REMARK SMILES IDX 17 1 18 2 19 3 30 4 31 5 5 6 2 7 1 8 3 9 4 10 6 11 7 14 8 15
REMARK SMILES IDX 9 16 13 17 10 18 12 19 11 20 14 21 16 22 15 23 20 24 21 25
REMARK SMILES IDX 29 26 22 27 24 28 23 29 25 30 27 31 28 32 26 33
REMARK H PARENT 6 12 6 13 26 34 26 35
ROOT
ATOM     1   C14 UNL     1      -0.229  -0.197   0.017  1.00  0.00     0.128 A   
ATOM     2   C15 UNL     1      -1.570   0.058  -0.164  1.00  0.00     0.135 A   
ATOM     3   N2  UNL     1      -1.921   0.901   0.874  1.00  0.00    -0.180 N   
ATOM     4   N4  UNL     1      -0.808   1.179   1.601  1.00  0.00    -0.071 NA  
ATOM     5   N5  UNL     1       0.216   0.511   1.098  1.00  0.00    -0.131 NA  
ENDROOT
BRANCH   1   6
ATOM     6   C5  UNL     1       0.745  -1.017  -0.780  1.00  0.00     0.120 C   
BRANCH   6   7
ATOM     7   C2  UNL     1       0.850  -2.514  -0.321  1.00  0.00     0.010 C   
ATOM     8   C1  UNL     1       1.763  -3.309  -1.284  1.00  0.00     0.017 C   
ATOM     9   C3  UNL     1       1.410  -2.659   1.108  1.00  0.00     0.017 C   
ATOM     10  C4  UNL     1      -0.541  -3.188  -0.368  1.00  0.00     0.017 C   
ENDBRANCH   6   7
BRANCH   6  11
ATOM     11  N1  UNL     1       2.102  -0.354  -0.717  1.00  0.00     0.250 N   
ATOM     12  H11 UNL     1       2.263  -0.093   0.268  1.00  0.00     0.199 HD  
ATOM     13  H12 UNL     1       2.863  -0.992  -0.966  1.00  0.00     0.199 HD  
BRANCH  11  14
ATOM     14  C6  UNL     1       2.247   0.888  -1.528  1.00  0.00     0.164 C   
BRANCH  14  15
ATOM     15  C7  UNL     1       3.608   1.490  -1.325  1.00  0.00    -0.002 A   
ATOM     16  C8  UNL     1       3.837   2.381  -0.249  1.00  0.00     0.012 A   
ATOM     17  C12 UNL     1       4.674   1.130  -2.166  1.00  0.00     0.045 A   
ATOM     18  C9  UNL     1       5.108   2.918  -0.020  1.00  0.00     0.037 A   
ATOM     19  C11 UNL     1       5.914   1.679  -1.912  1.00  0.00     0.109 A   
ATOM     20  C10 UNL     1       6.126   2.547  -0.870  1.00  0.00     0.108 A   
ATOM     21  O1  UNL     1       7.044   1.439  -2.627  1.00  0.00    -0.316 OA  
ATOM     22  O2  UNL     1       7.416   2.966  -0.798  1.00  0.00    -0.316 OA  
ATOM     23  C13 UNL     1       7.994   2.277  -1.928  1.00  0.00     0.337 C   
ENDBRANCH  14  15
ENDBRANCH  11  14
ENDBRANCH   6  11
ENDBRANCH   1   6
BRANCH   3  24
ATOM     24  C16 UNL     1      -3.189   1.447   1.195  1.00  0.00     0.070 A   
ATOM     25  C17 UNL     1      -3.319   2.286   2.315  1.00  0.00     0.027 A   
ATOM     26  C21 UNL     1      -4.317   1.154   0.418  1.00  0.00     0.163 A   
ATOM     27  C18 UNL     1      -4.564   2.821   2.658  1.00  0.00     0.015 A   
ATOM     28  C20 UNL     1      -5.557   1.701   0.771  1.00  0.00     0.340 A   
ATOM     29  C19 UNL     1      -5.689   2.527   1.889  1.00  0.00     0.138 A   
BRANCH  28  30
ATOM     30  S1  UNL     1      -6.994   1.313  -0.190  1.00  0.00    -0.114 S   
ATOM     31  O3  UNL     1      -6.582   0.522  -1.327  1.00  0.00    -0.479 OA  
ATOM     32  O4  UNL     1      -8.049   0.908   0.706  1.00  0.00    -0.479 OA  
BRANCH  30  33
ATOM     33  N3  UNL     1      -7.427   2.810  -0.810  1.00  0.00    -0.094 NA  
ATOM     34  H24 UNL     1      -7.379   2.797  -1.829  1.00  0.00     0.263 HD  
ATOM     35  H25 UNL     1      -8.348   3.079  -0.458  1.00  0.00     0.263 HD  
ENDBRANCH  30  33
ENDBRANCH  28  30
ENDBRANCH   3  24
TORSDOF 8
