REMARK SMILES CC(C)[C@H]([NH2+]Cc1ccc2c(c1)OCO2)c1cn(CCc2cccnc2)nn1
REMARK SMILES IDX 16 1 17 2 18 3 27 4 28 5 4 7 2 8 1 9 3 10 5 11 6 14 7 15
REMARK SMILES IDX 8 16 12 17 9 18 11 19 10 20 13 21 15 22 14 23 19 24 20 25
REMARK SMILES IDX 21 26 22 27 26 28 23 29 25 30 24 31
REMARK H PARENT 17 6 5 12 5 13
ROOT
ATOM     1   C13 UNL     1       0.730  -0.220   1.816  1.00  0.00     0.127 A   
ATOM     2   C14 UNL     1       1.139  -1.442   1.329  1.00  0.00     0.045 A   
ATOM     3   N2  UNL     1       0.386  -2.342   2.030  1.00  0.00    -0.212 N   
ATOM     4   N4  UNL     1      -0.401  -1.719   2.927  1.00  0.00    -0.076 NA  
ATOM     5   N5  UNL     1      -0.211  -0.417   2.794  1.00  0.00    -0.132 NA  
ATOM     6   H18 UNL     1       1.819  -1.740   0.543  1.00  0.00     0.083 HD  
ENDROOT
BRANCH   1   7
ATOM     7   C4  UNL     1       1.066   1.170   1.381  1.00  0.00     0.117 C   
BRANCH   7   8
ATOM     8   C2  UNL     1       2.159   1.824   2.266  1.00  0.00     0.037 C   
ATOM     9   C1  UNL     1       2.737   3.082   1.604  1.00  0.00     0.014 C   
ATOM     10  C3  UNL     1       1.703   2.158   3.691  1.00  0.00     0.014 C   
ENDBRANCH   7   8
BRANCH   7  11
ATOM     11  N1  UNL     1      -0.181   2.022   1.364  1.00  0.00     0.249 N   
ATOM     12  H9  UNL     1       0.052   3.017   1.369  1.00  0.00     0.199 HD  
ATOM     13  H10 UNL     1      -0.676   1.819   2.244  1.00  0.00     0.199 HD  
BRANCH  11  14
ATOM     14  C5  UNL     1      -1.137   1.754   0.246  1.00  0.00     0.164 C   
BRANCH  14  15
ATOM     15  C6  UNL     1      -0.625   2.252  -1.077  1.00  0.00    -0.002 A   
ATOM     16  C7  UNL     1      -0.630   3.636  -1.376  1.00  0.00     0.012 A   
ATOM     17  C11 UNL     1      -0.103   1.345  -2.016  1.00  0.00     0.045 A   
ATOM     18  C8  UNL     1      -0.122   4.110  -2.590  1.00  0.00     0.037 A   
ATOM     19  C10 UNL     1       0.390   1.845  -3.203  1.00  0.00     0.109 A   
ATOM     20  C9  UNL     1       0.382   3.189  -3.481  1.00  0.00     0.108 A   
ATOM     21  O1  UNL     1       0.930   1.108  -4.208  1.00  0.00    -0.316 OA  
ATOM     22  O2  UNL     1       0.915   3.468  -4.699  1.00  0.00    -0.316 OA  
ATOM     23  C12 UNL     1       1.236   2.143  -5.171  1.00  0.00     0.337 C   
ENDBRANCH  14  15
ENDBRANCH  11  14
ENDBRANCH   7  11
ENDBRANCH   1   7
BRANCH   3  24
ATOM     24  C15 UNL     1       0.247  -3.765   1.790  1.00  0.00     0.139 C   
BRANCH  24  25
ATOM     25  C16 UNL     1      -1.125  -4.146   1.218  1.00  0.00     0.058 C   
BRANCH  25  26
ATOM     26  C17 UNL     1      -1.443  -3.431  -0.070  1.00  0.00    -0.028 A   
ATOM     27  C18 UNL     1      -1.005  -3.909  -1.306  1.00  0.00     0.007 A   
ATOM     28  C21 UNL     1      -2.143  -2.226  -0.060  1.00  0.00     0.114 A   
ATOM     29  C19 UNL     1      -1.282  -3.182  -2.460  1.00  0.00     0.020 A   
ATOM     30  N3  UNL     1      -2.380  -1.472  -1.157  1.00  0.00    -0.264 NA  
ATOM     31  C20 UNL     1      -1.968  -1.985  -2.338  1.00  0.00     0.111 A   
ENDBRANCH  25  26
ENDBRANCH  24  25
ENDBRANCH   3  24
TORSDOF 8
