REMARK SMILES CC(C)C[C@H]([NH2+]Cc1ccc2c(c1)OCO2)c1cn(Cc2ccc(N(C)C)nc2)nn1
REMARK SMILES IDX 17 1 18 2 19 3 30 4 31 5 5 7 4 8 2 9 1 10 3 11 6 12 7 15
REMARK SMILES IDX 8 16 9 17 13 18 10 19 12 20 11 21 14 22 16 23 15 24 20 25
REMARK SMILES IDX 21 26 22 27 29 28 23 29 28 30 24 31 25 32 26 33 27 34
REMARK H PARENT 18 6 6 13 6 14
ROOT
ATOM     1   C14 UNL     1       0.720  -2.201  -0.918  1.00  0.00     0.127 A   
ATOM     2   C15 UNL     1       1.446  -1.030  -0.938  1.00  0.00     0.046 A   
ATOM     3   N2  UNL     1       1.099  -0.449  -2.127  1.00  0.00    -0.208 N   
ATOM     4   N5  UNL     1       0.203  -1.206  -2.789  1.00  0.00    -0.076 NA  
ATOM     5   N6  UNL     1      -0.038  -2.281  -2.059  1.00  0.00    -0.132 NA  
ATOM     6   H20 UNL     1       2.147  -0.575  -0.253  1.00  0.00     0.083 HD  
ENDROOT
BRANCH   1   7
ATOM     7   C5  UNL     1       0.618  -3.291   0.098  1.00  0.00     0.114 C   
BRANCH   7   8
ATOM     8   C4  UNL     1       1.537  -4.486  -0.226  1.00  0.00     0.064 C   
BRANCH   8   9
ATOM     9   C2  UNL     1       3.051  -4.181  -0.210  1.00  0.00    -0.012 C   
ATOM     10  C1  UNL     1       3.834  -5.438  -0.604  1.00  0.00     0.007 C   
ATOM     11  C3  UNL     1       3.534  -3.681   1.152  1.00  0.00     0.007 C   
ENDBRANCH   8   9
ENDBRANCH   7   8
BRANCH   7  12
ATOM     12  N1  UNL     1      -0.808  -3.819   0.120  1.00  0.00     0.249 N   
ATOM     13  H11 UNL     1      -1.224  -3.550  -0.787  1.00  0.00     0.199 HD  
ATOM     14  H12 UNL     1      -0.816  -4.843   0.133  1.00  0.00     0.199 HD  
BRANCH  12  15
ATOM     15  C6  UNL     1      -1.685  -3.310   1.209  1.00  0.00     0.164 C   
BRANCH  15  16
ATOM     16  C7  UNL     1      -1.943  -1.832   1.146  1.00  0.00    -0.002 A   
ATOM     17  C8  UNL     1      -2.827  -1.301   0.176  1.00  0.00     0.012 A   
ATOM     18  C12 UNL     1      -1.297  -0.962   2.041  1.00  0.00     0.045 A   
ATOM     19  C9  UNL     1      -3.078   0.073   0.108  1.00  0.00     0.037 A   
ATOM     20  C11 UNL     1      -1.561   0.388   1.940  1.00  0.00     0.109 A   
ATOM     21  C10 UNL     1      -2.434   0.890   1.007  1.00  0.00     0.108 A   
ATOM     22  O1  UNL     1      -1.022   1.359   2.723  1.00  0.00    -0.316 OA  
ATOM     23  O2  UNL     1      -2.579   2.236   1.104  1.00  0.00    -0.316 OA  
ATOM     24  C13 UNL     1      -1.658   2.538   2.172  1.00  0.00     0.337 C   
ENDBRANCH  15  16
ENDBRANCH  12  15
ENDBRANCH   7  12
ENDBRANCH   1   7
BRANCH   3  25
ATOM     25  C16 UNL     1       1.619   0.772  -2.721  1.00  0.00     0.171 C   
BRANCH  25  26
ATOM     26  C17 UNL     1       1.058   1.995  -2.061  1.00  0.00    -0.010 A   
ATOM     27  C18 UNL     1       1.858   2.866  -1.325  1.00  0.00     0.010 A   
ATOM     28  C23 UNL     1      -0.284   2.321  -2.163  1.00  0.00     0.118 A   
ATOM     29  C19 UNL     1       1.290   4.003  -0.744  1.00  0.00     0.045 A   
ATOM     30  N4  UNL     1      -0.845   3.418  -1.605  1.00  0.00    -0.241 NA  
ATOM     31  C20 UNL     1      -0.069   4.276  -0.907  1.00  0.00     0.119 A   
BRANCH  31  32
ATOM     32  N3  UNL     1      -0.655   5.407  -0.307  1.00  0.00    -0.322 N   
ATOM     33  C21 UNL     1       0.077   6.657  -0.512  1.00  0.00     0.131 C   
ATOM     34  C22 UNL     1      -2.094   5.515  -0.563  1.00  0.00     0.131 C   
ENDBRANCH  31  32
ENDBRANCH  25  26
ENDBRANCH   3  25
TORSDOF 9
