REMARK SMILES CC(C)C[C@H]([NH2+]Cc1ccc2c(c1)OCO2)c1cn(Cc2cncn2C)nn1
REMARK SMILES IDX 17 1 18 2 19 3 27 4 28 5 5 7 4 8 2 9 1 10 3 11 6 12 7 15
REMARK SMILES IDX 8 16 9 17 13 18 10 19 12 20 11 21 14 22 16 23 15 24 20 25
REMARK SMILES IDX 21 26 22 27 25 28 23 29 24 30 26 31
REMARK H PARENT 18 6 6 13 6 14
ROOT
ATOM     1   C14 UNL     1       0.660   1.212  -0.369  1.00  0.00     0.127 A   
ATOM     2   C15 UNL     1      -0.037   2.371  -0.104  1.00  0.00     0.046 A   
ATOM     3   N2  UNL     1       0.406   3.249  -1.056  1.00  0.00    -0.206 N   
ATOM     4   N5  UNL     1       1.276   2.650  -1.893  1.00  0.00    -0.076 NA  
ATOM     5   N6  UNL     1       1.456   1.410  -1.469  1.00  0.00    -0.132 NA  
ATOM     6   H20 UNL     1      -0.747   2.656   0.660  1.00  0.00     0.083 HD  
ENDROOT
BRANCH   1   7
ATOM     7   C5  UNL     1       0.664  -0.117   0.321  1.00  0.00     0.114 C   
BRANCH   7   8
ATOM     8   C4  UNL     1       1.579  -0.081   1.564  1.00  0.00     0.064 C   
BRANCH   8   9
ATOM     9   C2  UNL     1       1.595  -1.351   2.442  1.00  0.00    -0.012 C   
ATOM     10  C1  UNL     1       0.206  -1.729   2.958  1.00  0.00     0.007 C   
ATOM     11  C3  UNL     1       2.543  -1.141   3.628  1.00  0.00     0.007 C   
ENDBRANCH   8   9
ENDBRANCH   7   8
BRANCH   7  12
ATOM     12  N1  UNL     1       1.159  -1.189  -0.620  1.00  0.00     0.249 N   
ATOM     13  H11 UNL     1       1.459  -2.022  -0.109  1.00  0.00     0.199 HD  
ATOM     14  H12 UNL     1       1.994  -0.801  -1.082  1.00  0.00     0.199 HD  
BRANCH  12  15
ATOM     15  C6  UNL     1       0.209  -1.606  -1.696  1.00  0.00     0.164 C   
BRANCH  15  16
ATOM     16  C7  UNL     1      -0.923  -2.446  -1.170  1.00  0.00    -0.002 A   
ATOM     17  C8  UNL     1      -2.232  -1.915  -1.090  1.00  0.00     0.012 A   
ATOM     18  C12 UNL     1      -0.682  -3.759  -0.727  1.00  0.00     0.045 A   
ATOM     19  C9  UNL     1      -3.287  -2.675  -0.571  1.00  0.00     0.037 A   
ATOM     20  C11 UNL     1      -1.743  -4.480  -0.220  1.00  0.00     0.109 A   
ATOM     21  C10 UNL     1      -3.009  -3.954  -0.142  1.00  0.00     0.108 A   
ATOM     22  O1  UNL     1      -1.679  -5.752   0.255  1.00  0.00    -0.316 OA  
ATOM     23  O2  UNL     1      -3.902  -4.828   0.389  1.00  0.00    -0.316 OA  
ATOM     24  C13 UNL     1      -3.062  -5.981   0.612  1.00  0.00     0.337 C   
ENDBRANCH  15  16
ENDBRANCH  12  15
ENDBRANCH   7  12
ENDBRANCH   1   7
BRANCH   3  25
ATOM     25  C16 UNL     1       0.045   4.648  -1.229  1.00  0.00     0.187 C   
BRANCH  25  26
ATOM     26  C17 UNL     1       0.788   5.498  -0.263  1.00  0.00     0.048 A   
ATOM     27  C18 UNL     1       0.429   5.952   0.992  1.00  0.00     0.133 A   
ATOM     28  N4  UNL     1       2.050   6.012  -0.463  1.00  0.00    -0.296 N   
ATOM     29  N3  UNL     1       1.435   6.684   1.557  1.00  0.00    -0.247 NA  
ATOM     30  C19 UNL     1       2.394   6.713   0.660  1.00  0.00     0.188 A   
ATOM     31  C20 UNL     1       2.894   5.854  -1.624  1.00  0.00     0.137 C   
ENDBRANCH  25  26
ENDBRANCH   3  25
TORSDOF 8
