REMARK SMILES Cc1occc1[C@@H](CO)n1cc([C@@H]([NH2+]Cc2ccc3c(c2)OCO3)C2CCCCC2)nn1
REMARK SMILES IDX 10 1 11 2 12 3 31 4 32 5 7 7 6 8 2 9 3 10 4 11 5 12 1 13
REMARK SMILES IDX 8 14 9 15 13 17 14 18 15 21 16 22 17 23 21 24 18 25 20 26
REMARK SMILES IDX 19 27 22 28 24 29 23 30 25 31 26 32 30 33 27 34 29 35 28 36
REMARK H PARENT 11 6 9 16 14 19 14 20
ROOT
ATOM     1   N1  UNL     1      -2.340   0.895   1.581  1.00  0.00    -0.202 N   
ATOM     2   C8  UNL     1      -1.484   1.631   0.801  1.00  0.00     0.046 A   
ATOM     3   C9  UNL     1      -0.424   0.782   0.572  1.00  0.00     0.127 A   
ATOM     4   N3  UNL     1      -0.644  -0.401   1.228  1.00  0.00    -0.132 NA  
ATOM     5   N4  UNL     1      -1.815  -0.323   1.838  1.00  0.00    -0.075 NA  
ATOM     6   H10 UNL     1      -1.711   2.642   0.493  1.00  0.00     0.083 HD  
ENDROOT
BRANCH   1   7
ATOM     7   C6  UNL     1      -3.651   1.297   2.093  1.00  0.00     0.157 C   
BRANCH   7   8
ATOM     8   C5  UNL     1      -4.741   0.684   1.259  1.00  0.00     0.005 A   
ATOM     9   C2  UNL     1      -5.699   1.355   0.515  1.00  0.00     0.061 A   
ATOM     10  O1  UNL     1      -6.520   0.471  -0.112  1.00  0.00    -0.322 OA  
ATOM     11  C3  UNL     1      -6.108  -0.774   0.229  1.00  0.00     0.136 A   
ATOM     12  C4  UNL     1      -5.024  -0.704   1.069  1.00  0.00     0.034 A   
ATOM     13  C1  UNL     1      -5.994   2.786   0.280  1.00  0.00     0.073 C   
ENDBRANCH   7   8
BRANCH   7  14
ATOM     14  C7  UNL     1      -3.807   1.007   3.594  1.00  0.00     0.186 C   
BRANCH  14  15
ATOM     15  O2  UNL     1      -2.980   1.890   4.357  1.00  0.00    -0.394 OA  
ATOM     16  H9  UNL     1      -3.131   1.677   5.297  1.00  0.00     0.210 HD  
ENDBRANCH  14  15
ENDBRANCH   7  14
ENDBRANCH   1   7
BRANCH   3  17
ATOM     17  C10 UNL     1       0.858   0.979  -0.177  1.00  0.00     0.117 C   
BRANCH  17  18
ATOM     18  N2  UNL     1       1.934   0.211   0.547  1.00  0.00     0.249 N   
ATOM     19  H12 UNL     1       1.679  -0.787   0.547  1.00  0.00     0.199 HD  
ATOM     20  H13 UNL     1       1.861   0.459   1.544  1.00  0.00     0.199 HD  
BRANCH  18  21
ATOM     21  C11 UNL     1       3.339   0.399   0.120  1.00  0.00     0.164 C   
BRANCH  21  22
ATOM     22  C12 UNL     1       4.277  -0.280   1.078  1.00  0.00    -0.002 A   
ATOM     23  C13 UNL     1       4.856   0.443   2.148  1.00  0.00     0.012 A   
ATOM     24  C17 UNL     1       4.544  -1.654   0.947  1.00  0.00     0.045 A   
ATOM     25  C14 UNL     1       5.697  -0.189   3.070  1.00  0.00     0.037 A   
ATOM     26  C16 UNL     1       5.377  -2.246   1.873  1.00  0.00     0.109 A   
ATOM     27  C15 UNL     1       5.938  -1.534   2.905  1.00  0.00     0.108 A   
ATOM     28  O3  UNL     1       5.735  -3.556   1.890  1.00  0.00    -0.316 OA  
ATOM     29  O4  UNL     1       6.722  -2.307   3.701  1.00  0.00    -0.316 OA  
ATOM     30  C18 UNL     1       6.605  -3.588   3.045  1.00  0.00     0.337 C   
ENDBRANCH  21  22
ENDBRANCH  18  21
ENDBRANCH  17  18
BRANCH  17  31
ATOM     31  C19 UNL     1       0.789   0.569  -1.672  1.00  0.00     0.043 C   
ATOM     32  C20 UNL     1       0.478  -0.922  -1.910  1.00  0.00     0.010 C   
ATOM     33  C24 UNL     1      -0.205   1.449  -2.458  1.00  0.00     0.010 C   
ATOM     34  C21 UNL     1       0.458  -1.264  -3.400  1.00  0.00     0.001 C   
ATOM     35  C23 UNL     1      -0.211   1.104  -3.946  1.00  0.00     0.001 C   
ATOM     36  C22 UNL     1      -0.508  -0.374  -4.175  1.00  0.00     0.000 C   
ENDBRANCH  17  31
ENDBRANCH   3  17
TORSDOF 9
