REMARK SMILES Cc1occc1[C@H](CO)n1cc([C@@H]([NH2+]Cc2ccc3c(c2)OCO3)C2CCCCC2)nn1
REMARK SMILES IDX 10 1 11 2 12 3 31 4 32 5 7 7 6 8 2 9 3 10 4 11 5 12 1 13
REMARK SMILES IDX 8 14 9 15 13 17 14 18 15 21 16 22 17 23 21 24 18 25 20 26
REMARK SMILES IDX 19 27 22 28 24 29 23 30 25 31 26 32 30 33 27 34 29 35 28 36
REMARK H PARENT 11 6 9 16 14 19 14 20
ROOT
ATOM     1   N1  UNL     1       2.601  -1.089   0.450  1.00  0.00    -0.202 N   
ATOM     2   C8  UNL     1       1.327  -1.105  -0.057  1.00  0.00     0.046 A   
ATOM     3   C9  UNL     1       0.641  -1.965   0.773  1.00  0.00     0.127 A   
ATOM     4   N3  UNL     1       1.503  -2.456   1.714  1.00  0.00    -0.132 NA  
ATOM     5   N4  UNL     1       2.696  -1.919   1.508  1.00  0.00    -0.075 NA  
ATOM     6   H10 UNL     1       1.046  -0.482  -0.895  1.00  0.00     0.083 HD  
ENDROOT
BRANCH   1   7
ATOM     7   C6  UNL     1       3.703  -0.190   0.109  1.00  0.00     0.157 C   
BRANCH   7   8
ATOM     8   C5  UNL     1       3.251   1.237   0.317  1.00  0.00     0.005 A   
ATOM     9   C2  UNL     1       3.060   1.865   1.541  1.00  0.00     0.061 A   
ATOM     10  O1  UNL     1       2.587   3.127   1.363  1.00  0.00    -0.322 OA  
ATOM     11  C3  UNL     1       2.504   3.341   0.028  1.00  0.00     0.136 A   
ATOM     12  C4  UNL     1       2.895   2.217  -0.660  1.00  0.00     0.034 A   
ATOM     13  C1  UNL     1       3.239   1.437   2.947  1.00  0.00     0.073 C   
ENDBRANCH   7   8
BRANCH   7  14
ATOM     14  C7  UNL     1       4.299  -0.515  -1.271  1.00  0.00     0.186 C   
BRANCH  14  15
ATOM     15  O2  UNL     1       3.348  -0.400  -2.333  1.00  0.00    -0.394 OA  
ATOM     16  H9  UNL     1       3.828  -0.592  -3.162  1.00  0.00     0.210 HD  
ENDBRANCH  14  15
ENDBRANCH   7  14
ENDBRANCH   1   7
BRANCH   3  17
ATOM     17  C10 UNL     1      -0.818  -2.282   0.858  1.00  0.00     0.117 C   
BRANCH  17  18
ATOM     18  N2  UNL     1      -1.641  -1.023   0.935  1.00  0.00     0.249 N   
ATOM     19  H12 UNL     1      -1.389  -0.415   0.146  1.00  0.00     0.199 HD  
ATOM     20  H13 UNL     1      -2.639  -1.228   0.828  1.00  0.00     0.199 HD  
BRANCH  18  21
ATOM     21  C11 UNL     1      -1.460  -0.234   2.192  1.00  0.00     0.164 C   
BRANCH  21  22
ATOM     22  C12 UNL     1      -2.120   1.110   2.056  1.00  0.00    -0.002 A   
ATOM     23  C13 UNL     1      -3.474   1.288   2.425  1.00  0.00     0.012 A   
ATOM     24  C17 UNL     1      -1.403   2.186   1.501  1.00  0.00     0.045 A   
ATOM     25  C14 UNL     1      -4.106   2.524   2.253  1.00  0.00     0.037 A   
ATOM     26  C16 UNL     1      -2.058   3.389   1.343  1.00  0.00     0.109 A   
ATOM     27  C15 UNL     1      -3.371   3.554   1.709  1.00  0.00     0.108 A   
ATOM     28  O3  UNL     1      -1.518   4.521   0.820  1.00  0.00    -0.316 OA  
ATOM     29  O4  UNL     1      -3.822   4.812   1.468  1.00  0.00    -0.316 OA  
ATOM     30  C18 UNL     1      -2.632   5.435   0.939  1.00  0.00     0.337 C   
ENDBRANCH  21  22
ENDBRANCH  18  21
ENDBRANCH  17  18
BRANCH  17  31
ATOM     31  C19 UNL     1      -1.317  -3.204  -0.288  1.00  0.00     0.043 C   
ATOM     32  C20 UNL     1      -2.655  -3.876   0.083  1.00  0.00     0.010 C   
ATOM     33  C24 UNL     1      -1.440  -2.514  -1.661  1.00  0.00     0.010 C   
ATOM     34  C21 UNL     1      -3.124  -4.845  -1.000  1.00  0.00     0.001 C   
ATOM     35  C23 UNL     1      -1.913  -3.487  -2.742  1.00  0.00     0.001 C   
ATOM     36  C22 UNL     1      -3.225  -4.162  -2.359  1.00  0.00     0.000 C   
ENDBRANCH  17  31
ENDBRANCH   3  17
TORSDOF 9
