REMARK SMILES Clc1cccc(CCn2cc([C@@H]([NH2+]Cc3ccc4c(c3)OCO4)C3CCCCC3)nn2)n1
REMARK SMILES IDX 9 1 10 2 11 3 30 4 31 5 8 7 7 8 6 9 2 10 3 11 32 12 4 13
REMARK SMILES IDX 5 14 1 15 12 16 13 17 14 20 15 21 16 22 20 23 17 24 19 25
REMARK SMILES IDX 18 26 21 27 23 28 22 29 24 30 25 31 29 32 26 33 28 34 27 35
REMARK H PARENT 10 6 13 18 13 19
ROOT
ATOM     1   N1  UNL     1       0.696   2.801   2.028  1.00  0.00    -0.212 N   
ATOM     2   C8  UNL     1       0.065   2.843   0.819  1.00  0.00     0.045 A   
ATOM     3   C9  UNL     1      -0.842   1.809   0.895  1.00  0.00     0.127 A   
ATOM     4   N3  UNL     1      -0.843   1.306   2.166  1.00  0.00    -0.132 NA  
ATOM     5   N4  UNL     1       0.102   1.926   2.853  1.00  0.00    -0.076 NA  
ATOM     6   H8  UNL     1       0.412   3.460   0.007  1.00  0.00     0.083 HD  
ENDROOT
BRANCH   1   7
ATOM     7   C7  UNL     1       1.931   3.452   2.413  1.00  0.00     0.140 C   
BRANCH   7   8
ATOM     8   C6  UNL     1       3.156   2.562   2.190  1.00  0.00     0.077 C   
BRANCH   8   9
ATOM     9   C5  UNL     1       3.561   2.452   0.738  1.00  0.00     0.044 A   
ATOM     10  C1  UNL     1       3.133   1.670  -1.390  1.00  0.00     0.129 A   
ATOM     11  C2  UNL     1       4.271   2.240  -1.919  1.00  0.00     0.041 A   
ATOM     12  N5  UNL     1       2.751   1.753  -0.095  1.00  0.00    -0.241 NA  
ATOM     13  C3  UNL     1       5.085   2.954  -1.054  1.00  0.00     0.005 A   
ATOM     14  C4  UNL     1       4.729   3.067   0.290  1.00  0.00     0.024 A   
ATOM     15  CL1 UNL     1       2.023   0.827  -2.384  1.00  0.00    -0.062 Cl  
ENDBRANCH   8   9
ENDBRANCH   7   8
ENDBRANCH   1   7
BRANCH   3  16
ATOM     16  C10 UNL     1      -1.587   1.124  -0.204  1.00  0.00     0.117 C   
BRANCH  16  17
ATOM     17  N2  UNL     1      -0.748  -0.021  -0.724  1.00  0.00     0.249 N   
ATOM     18  H10 UNL     1       0.186   0.363  -0.938  1.00  0.00     0.199 HD  
ATOM     19  H11 UNL     1      -1.106  -0.353  -1.624  1.00  0.00     0.199 HD  
BRANCH  17  20
ATOM     20  C11 UNL     1      -0.501  -1.177   0.186  1.00  0.00     0.164 C   
BRANCH  20  21
ATOM     21  C12 UNL     1       0.374  -2.196  -0.492  1.00  0.00    -0.002 A   
ATOM     22  C13 UNL     1      -0.175  -3.118  -1.411  1.00  0.00     0.012 A   
ATOM     23  C17 UNL     1       1.760  -2.197  -0.252  1.00  0.00     0.045 A   
ATOM     24  C14 UNL     1       0.642  -4.038  -2.077  1.00  0.00     0.037 A   
ATOM     25  C16 UNL     1       2.536  -3.121  -0.919  1.00  0.00     0.109 A   
ATOM     26  C15 UNL     1       1.993  -4.011  -1.812  1.00  0.00     0.108 A   
ATOM     27  O1  UNL     1       3.882  -3.262  -0.799  1.00  0.00    -0.316 OA  
ATOM     28  O2  UNL     1       2.932  -4.817  -2.373  1.00  0.00    -0.316 OA  
ATOM     29  C18 UNL     1       4.125  -4.355  -1.712  1.00  0.00     0.337 C   
ENDBRANCH  20  21
ENDBRANCH  17  20
ENDBRANCH  16  17
BRANCH  16  30
ATOM     30  C19 UNL     1      -3.022   0.669   0.167  1.00  0.00     0.043 C   
ATOM     31  C20 UNL     1      -3.714  -0.102  -0.979  1.00  0.00     0.010 C   
ATOM     32  C24 UNL     1      -3.895   1.882   0.560  1.00  0.00     0.010 C   
ATOM     33  C21 UNL     1      -5.136  -0.519  -0.608  1.00  0.00     0.001 C   
ATOM     34  C23 UNL     1      -5.324   1.476   0.914  1.00  0.00     0.001 C   
ATOM     35  C22 UNL     1      -5.984   0.679  -0.205  1.00  0.00     0.000 C   
ENDBRANCH  16  30
ENDBRANCH   3  16
TORSDOF 8
