REMARK SMILES CC(C)(C)[C@H]([NH2+]Cc1ccc2c(c1)OCO2)c1cn(C[C@@H](O)c2ccccc2)nn1
REMARK SMILES IDX 17 1 18 2 19 3 29 4 30 5 5 7 2 8 1 9 3 10 4 11 6 12 7 15
REMARK SMILES IDX 8 16 9 17 13 18 10 19 12 20 11 21 14 22 16 23 15 24 20 25
REMARK SMILES IDX 21 26 22 27 23 29 24 30 28 31 25 32 27 33 26 34
REMARK H PARENT 18 6 6 13 6 14 22 28
ROOT
ATOM     1   C14 UNL     1      -0.046   0.678  -0.529  1.00  0.00     0.127 A   
ATOM     2   C15 UNL     1       0.273   2.010  -0.670  1.00  0.00     0.046 A   
ATOM     3   N2  UNL     1       0.702   2.382   0.571  1.00  0.00    -0.209 N   
ATOM     4   N3  UNL     1       0.750   1.321   1.398  1.00  0.00    -0.076 NA  
ATOM     5   N4  UNL     1       0.278   0.275   0.741  1.00  0.00    -0.132 NA  
ATOM     6   H20 UNL     1       0.190   2.715  -1.487  1.00  0.00     0.083 HD  
ENDROOT
BRANCH   1   7
ATOM     7   C5  UNL     1      -0.607  -0.321  -1.497  1.00  0.00     0.120 C   
BRANCH   7   8
ATOM     8   C2  UNL     1      -2.175  -0.348  -1.549  1.00  0.00     0.010 C   
ATOM     9   C1  UNL     1      -2.724   1.050  -1.916  1.00  0.00     0.017 C   
ATOM     10  C3  UNL     1      -2.659  -1.322  -2.648  1.00  0.00     0.017 C   
ATOM     11  C4  UNL     1      -2.804  -0.775  -0.209  1.00  0.00     0.017 C   
ENDBRANCH   7   8
BRANCH   7  12
ATOM     12  N1  UNL     1      -0.070  -1.687  -1.138  1.00  0.00     0.250 N   
ATOM     13  H11 UNL     1      -0.667  -2.449  -1.464  1.00  0.00     0.199 HD  
ATOM     14  H12 UNL     1      -0.081  -1.741  -0.108  1.00  0.00     0.199 HD  
BRANCH  12  15
ATOM     15  C6  UNL     1       1.330  -1.954  -1.569  1.00  0.00     0.164 C   
BRANCH  15  16
ATOM     16  C7  UNL     1       1.795  -3.282  -1.046  1.00  0.00    -0.002 A   
ATOM     17  C8  UNL     1       1.551  -4.469  -1.776  1.00  0.00     0.012 A   
ATOM     18  C12 UNL     1       2.427  -3.357   0.207  1.00  0.00     0.045 A   
ATOM     19  C9  UNL     1       1.940  -5.714  -1.270  1.00  0.00     0.037 A   
ATOM     20  C11 UNL     1       2.801  -4.599   0.674  1.00  0.00     0.109 A   
ATOM     21  C10 UNL     1       2.563  -5.744  -0.043  1.00  0.00     0.108 A   
ATOM     22  O1  UNL     1       3.423  -4.846   1.856  1.00  0.00    -0.316 OA  
ATOM     23  O2  UNL     1       3.007  -6.857   0.597  1.00  0.00    -0.316 OA  
ATOM     24  C13 UNL     1       3.579  -6.280   1.790  1.00  0.00     0.337 C   
ENDBRANCH  15  16
ENDBRANCH  12  15
ENDBRANCH   7  12
ENDBRANCH   1   7
BRANCH   3  25
ATOM     25  C16 UNL     1       1.042   3.703   1.043  1.00  0.00     0.170 C   
BRANCH  25  26
ATOM     26  C17 UNL     1       0.043   4.251   2.065  1.00  0.00     0.164 C   
BRANCH  26  27
ATOM     27  O3  UNL     1       0.455   5.565   2.449  1.00  0.00    -0.387 OA  
ATOM     28  H24 UNL     1      -0.271   5.950   2.975  1.00  0.00     0.211 HD  
ENDBRANCH  26  27
BRANCH  26  29
ATOM     29  C18 UNL     1      -1.377   4.311   1.540  1.00  0.00    -0.018 A   
ATOM     30  C19 UNL     1      -1.761   5.270   0.590  1.00  0.00     0.006 A   
ATOM     31  C23 UNL     1      -2.327   3.380   1.984  1.00  0.00     0.006 A   
ATOM     32  C20 UNL     1      -3.067   5.299   0.101  1.00  0.00     0.000 A   
ATOM     33  C22 UNL     1      -3.633   3.412   1.492  1.00  0.00     0.000 A   
ATOM     34  C21 UNL     1      -4.002   4.371   0.551  1.00  0.00     0.000 A   
ENDBRANCH  26  29
ENDBRANCH  25  26
ENDBRANCH   3  25
TORSDOF 9
