REMARK SMILES CC(C)(C)[C@H]([NH2+]Cc1ccc2c(c1)OCO2)c1cn(C[C@H](O)c2ccccc2)nn1
REMARK SMILES IDX 17 1 18 2 19 3 29 4 30 5 5 7 2 8 1 9 3 10 4 11 6 12 7 15
REMARK SMILES IDX 8 16 9 17 13 18 10 19 12 20 11 21 14 22 16 23 15 24 20 25
REMARK SMILES IDX 21 26 22 27 23 29 24 30 28 31 25 32 27 33 26 34
REMARK H PARENT 18 6 6 13 6 14 22 28
ROOT
ATOM     1   C14 UNL     1      -0.686   0.100   1.646  1.00  0.00     0.127 A   
ATOM     2   C15 UNL     1       0.017  -1.084   1.686  1.00  0.00     0.046 A   
ATOM     3   N2  UNL     1      -0.956  -2.042   1.727  1.00  0.00    -0.209 N   
ATOM     4   N3  UNL     1      -2.182  -1.487   1.713  1.00  0.00    -0.076 NA  
ATOM     5   N4  UNL     1      -2.030  -0.174   1.658  1.00  0.00    -0.132 NA  
ATOM     6   H20 UNL     1       1.070  -1.325   1.662  1.00  0.00     0.083 HD  
ENDROOT
BRANCH   1   7
ATOM     7   C5  UNL     1      -0.217   1.514   1.487  1.00  0.00     0.120 C   
BRANCH   7   8
ATOM     8   C2  UNL     1      -0.141   2.322   2.830  1.00  0.00     0.010 C   
ATOM     9   C1  UNL     1       0.492   3.712   2.585  1.00  0.00     0.017 C   
ATOM     10  C3  UNL     1      -1.519   2.530   3.488  1.00  0.00     0.017 C   
ATOM     11  C4  UNL     1       0.771   1.585   3.838  1.00  0.00     0.017 C   
ENDBRANCH   7   8
BRANCH   7  12
ATOM     12  N1  UNL     1      -1.120   2.221   0.494  1.00  0.00     0.250 N   
ATOM     13  H11 UNL     1      -2.083   2.075   0.828  1.00  0.00     0.199 HD  
ATOM     14  H12 UNL     1      -0.945   3.228   0.490  1.00  0.00     0.199 HD  
BRANCH  12  15
ATOM     15  C6  UNL     1      -1.072   1.724  -0.916  1.00  0.00     0.164 C   
BRANCH  15  16
ATOM     16  C7  UNL     1       0.251   1.976  -1.583  1.00  0.00    -0.002 A   
ATOM     17  C8  UNL     1       0.601   3.276  -2.019  1.00  0.00     0.012 A   
ATOM     18  C12 UNL     1       1.166   0.922  -1.748  1.00  0.00     0.045 A   
ATOM     19  C9  UNL     1       1.844   3.524  -2.611  1.00  0.00     0.037 A   
ATOM     20  C11 UNL     1       2.383   1.199  -2.334  1.00  0.00     0.109 A   
ATOM     21  C10 UNL     1       2.713   2.464  -2.753  1.00  0.00     0.108 A   
ATOM     22  O1  UNL     1       3.375   0.300  -2.561  1.00  0.00    -0.316 OA  
ATOM     23  O2  UNL     1       3.954   2.521  -3.300  1.00  0.00    -0.316 OA  
ATOM     24  C13 UNL     1       4.364   1.140  -3.201  1.00  0.00     0.337 C   
ENDBRANCH  15  16
ENDBRANCH  12  15
ENDBRANCH   7  12
ENDBRANCH   1   7
BRANCH   3  25
ATOM     25  C16 UNL     1      -0.791  -3.477   1.711  1.00  0.00     0.170 C   
BRANCH  25  26
ATOM     26  C17 UNL     1      -1.309  -4.130   0.426  1.00  0.00     0.164 C   
BRANCH  26  27
ATOM     27  O3  UNL     1      -1.044  -5.534   0.492  1.00  0.00    -0.387 OA  
ATOM     28  H24 UNL     1      -1.148  -5.894  -0.409  1.00  0.00     0.211 HD  
ENDBRANCH  26  27
BRANCH  26  29
ATOM     29  C18 UNL     1      -0.683  -3.571  -0.838  1.00  0.00    -0.018 A   
ATOM     30  C19 UNL     1       0.683  -3.747  -1.111  1.00  0.00     0.006 A   
ATOM     31  C23 UNL     1      -1.471  -2.863  -1.758  1.00  0.00     0.006 A   
ATOM     32  C20 UNL     1       1.245  -3.224  -2.276  1.00  0.00     0.000 A   
ATOM     33  C22 UNL     1      -0.907  -2.347  -2.926  1.00  0.00     0.000 A   
ATOM     34  C21 UNL     1       0.451  -2.527  -3.184  1.00  0.00     0.000 A   
ENDBRANCH  26  29
ENDBRANCH  25  26
ENDBRANCH   3  25
TORSDOF 9
