REMARK SMILES COc1ccc(CCn2cc([C@@H]([NH2+]Cc3ccc4c(c3)OCO4)C3CCCCC3)nn2)c(C)c1
REMARK SMILES IDX 9 1 10 2 11 3 30 4 31 5 8 7 7 8 6 9 3 10 4 11 34 12 5 13
REMARK SMILES IDX 32 14 33 15 2 16 1 17 12 18 13 19 14 22 15 23 16 24 20 25
REMARK SMILES IDX 17 26 19 27 18 28 21 29 23 30 22 31 24 32 25 33 29 34 26 35
REMARK SMILES IDX 28 36 27 37
REMARK H PARENT 10 6 13 20 13 21
ROOT
ATOM     1   N1  UNL     1      -3.763   1.006   0.187  1.00  0.00    -0.212 N   
ATOM     2   C8  UNL     1      -2.460   1.353   0.408  1.00  0.00     0.045 A   
ATOM     3   C9  UNL     1      -1.959   1.568  -0.856  1.00  0.00     0.127 A   
ATOM     4   N3  UNL     1      -2.954   1.368  -1.778  1.00  0.00    -0.132 NA  
ATOM     5   N4  UNL     1      -4.057   1.038  -1.125  1.00  0.00    -0.076 NA  
ATOM     6   H10 UNL     1      -2.022   1.369   1.396  1.00  0.00     0.083 HD  
ENDROOT
BRANCH   1   7
ATOM     7   C7  UNL     1      -4.740   0.558   1.157  1.00  0.00     0.139 C   
BRANCH   7   8
ATOM     8   C6  UNL     1      -4.982  -0.955   1.114  1.00  0.00     0.057 C   
BRANCH   8   9
ATOM     9   C5  UNL     1      -3.719  -1.776   1.296  1.00  0.00    -0.043 A   
ATOM     10  C2  UNL     1      -1.314  -3.191   1.724  1.00  0.00     0.075 A   
ATOM     11  C3  UNL     1      -1.858  -2.419   2.744  1.00  0.00     0.034 A   
ATOM     12  C27 UNL     1      -1.980  -3.270   0.500  1.00  0.00     0.037 A   
ATOM     13  C4  UNL     1      -3.053  -1.724   2.533  1.00  0.00     0.007 A   
ATOM     14  C25 UNL     1      -3.180  -2.576   0.267  1.00  0.00    -0.045 A   
ATOM     15  C26 UNL     1      -3.858  -2.741  -1.067  1.00  0.00     0.045 C   
BRANCH  10  16
ATOM     16  O1  UNL     1      -0.145  -3.897   1.783  1.00  0.00    -0.349 OA  
ATOM     17  C1  UNL     1       0.495  -3.975   3.051  1.00  0.00     0.203 C   
ENDBRANCH  10  16
ENDBRANCH   8   9
ENDBRANCH   7   8
ENDBRANCH   1   7
BRANCH   3  18
ATOM     18  C10 UNL     1      -0.569   1.854  -1.325  1.00  0.00     0.117 C   
BRANCH  18  19
ATOM     19  N2  UNL     1      -0.208   0.823  -2.375  1.00  0.00     0.249 N   
ATOM     20  H12 UNL     1       0.636   1.087  -2.884  1.00  0.00     0.199 HD  
ATOM     21  H13 UNL     1      -0.986   0.822  -3.050  1.00  0.00     0.199 HD  
BRANCH  19  22
ATOM     22  C11 UNL     1      -0.030  -0.579  -1.883  1.00  0.00     0.164 C   
BRANCH  22  23
ATOM     23  C12 UNL     1       1.245  -0.752  -1.106  1.00  0.00    -0.002 A   
ATOM     24  C13 UNL     1       2.486  -0.850  -1.781  1.00  0.00     0.012 A   
ATOM     25  C17 UNL     1       1.219  -0.777   0.299  1.00  0.00     0.045 A   
ATOM     26  C14 UNL     1       3.684  -0.968  -1.068  1.00  0.00     0.037 A   
ATOM     27  C16 UNL     1       2.418  -0.890   0.972  1.00  0.00     0.109 A   
ATOM     28  C15 UNL     1       3.615  -0.982   0.307  1.00  0.00     0.108 A   
ATOM     29  O2  UNL     1       2.569  -0.915   2.321  1.00  0.00    -0.316 OA  
ATOM     30  O3  UNL     1       4.672  -1.082   1.155  1.00  0.00    -0.316 OA  
ATOM     31  C18 UNL     1       4.003  -1.068   2.433  1.00  0.00     0.337 C   
ENDBRANCH  22  23
ENDBRANCH  19  22
ENDBRANCH  18  19
BRANCH  18  32
ATOM     32  C19 UNL     1      -0.420   3.285  -1.924  1.00  0.00     0.043 C   
ATOM     33  C20 UNL     1      -0.854   4.357  -0.896  1.00  0.00     0.010 C   
ATOM     34  C24 UNL     1       1.024   3.577  -2.390  1.00  0.00     0.010 C   
ATOM     35  C21 UNL     1      -0.669   5.780  -1.416  1.00  0.00     0.001 C   
ATOM     36  C23 UNL     1       1.202   5.008  -2.895  1.00  0.00     0.001 C   
ATOM     37  C22 UNL     1       0.763   6.034  -1.860  1.00  0.00     0.000 C   
ENDBRANCH  18  32
ENDBRANCH   3  18
TORSDOF 9
