REMARK SMILES [O-]N([O-])c1ccccc1Cn1cc([C@@H]([NH2+]Cc2ccc3c(c2)OCO3)C2CCCC2)nn1
REMARK SMILES IDX 11 1 12 2 13 3 31 4 32 5 10 7 9 8 4 9 5 10 6 11 8 12 7 13
REMARK SMILES IDX 2 14 1 15 3 16 14 17 15 18 16 21 17 22 18 23 22 24 19 25
REMARK SMILES IDX 21 26 20 27 23 28 25 29 24 30 26 31 27 32 30 33 28 34 29 35
REMARK H PARENT 12 6 15 19 15 20
ROOT
ATOM     1   N2  UNL     1       2.410  -1.415   2.030  1.00  0.00    -0.208 N   
ATOM     2   C8  UNL     1       1.575  -0.331   2.007  1.00  0.00     0.046 A   
ATOM     3   C9  UNL     1       1.398  -0.081   0.662  1.00  0.00     0.127 A   
ATOM     4   N4  UNL     1       2.234  -0.895  -0.054  1.00  0.00    -0.132 NA  
ATOM     5   N5  UNL     1       2.850  -1.704   0.792  1.00  0.00    -0.076 NA  
ATOM     6   H7  UNL     1       1.101   0.051   2.902  1.00  0.00     0.083 HD  
ENDROOT
BRANCH   1   7
ATOM     7   C7  UNL     1       2.616  -2.347   3.129  1.00  0.00     0.171 C   
BRANCH   7   8
ATOM     8   C6  UNL     1       1.977  -3.697   2.855  1.00  0.00     0.000 A   
ATOM     9   C1  UNL     1       0.602  -3.897   2.596  1.00  0.00     0.122 A   
ATOM     10  C2  UNL     1       0.065  -5.161   2.320  1.00  0.00     0.031 A   
ATOM     11  C3  UNL     1       0.910  -6.266   2.309  1.00  0.00     0.002 A   
ATOM     12  C5  UNL     1       2.799  -4.837   2.840  1.00  0.00     0.007 A   
ATOM     13  C4  UNL     1       2.271  -6.104   2.570  1.00  0.00     0.000 A   
BRANCH   9  14
ATOM     14  N1  UNL     1      -0.328  -2.780   2.608  1.00  0.00     0.092 N   
ATOM     15  O1  UNL     1      -0.470  -2.173   3.675  1.00  0.00    -0.138 OA  
ATOM     16  O2  UNL     1      -0.868  -2.458   1.532  1.00  0.00    -0.138 OA  
ENDBRANCH   9  14
ENDBRANCH   7   8
ENDBRANCH   1   7
BRANCH   3  17
ATOM     17  C10 UNL     1       0.370   0.738  -0.054  1.00  0.00     0.117 C   
BRANCH  17  18
ATOM     18  N3  UNL     1      -0.840  -0.136  -0.339  1.00  0.00     0.249 N   
ATOM     19  H9  UNL     1      -1.670   0.434  -0.517  1.00  0.00     0.199 HD  
ATOM     20  H10 UNL     1      -1.039  -0.700   0.503  1.00  0.00     0.199 HD  
BRANCH  18  21
ATOM     21  C11 UNL     1      -0.699  -1.108  -1.467  1.00  0.00     0.164 C   
BRANCH  21  22
ATOM     22  C12 UNL     1      -0.641  -0.439  -2.812  1.00  0.00    -0.002 A   
ATOM     23  C13 UNL     1      -1.810   0.116  -3.388  1.00  0.00     0.012 A   
ATOM     24  C17 UNL     1       0.583  -0.333  -3.494  1.00  0.00     0.045 A   
ATOM     25  C14 UNL     1      -1.760   0.772  -4.623  1.00  0.00     0.037 A   
ATOM     26  C16 UNL     1       0.597   0.320  -4.708  1.00  0.00     0.109 A   
ATOM     27  C15 UNL     1      -0.540   0.858  -5.257  1.00  0.00     0.108 A   
ATOM     28  O3  UNL     1       1.692   0.513  -5.490  1.00  0.00    -0.316 OA  
ATOM     29  O4  UNL     1      -0.306   1.456  -6.454  1.00  0.00    -0.316 OA  
ATOM     30  C18 UNL     1       1.108   1.210  -6.613  1.00  0.00     0.337 C   
ENDBRANCH  21  22
ENDBRANCH  18  21
ENDBRANCH  17  18
BRANCH  17  31
ATOM     31  C19 UNL     1      -0.093   1.982   0.730  1.00  0.00     0.043 C   
ATOM     32  C20 UNL     1      -1.112   2.854  -0.016  1.00  0.00     0.010 C   
ATOM     33  C23 UNL     1       1.037   2.986   0.988  1.00  0.00     0.010 C   
ATOM     34  C21 UNL     1      -1.015   4.233   0.633  1.00  0.00     0.001 C   
ATOM     35  C22 UNL     1       0.307   4.258   1.394  1.00  0.00     0.001 C   
ENDBRANCH  17  31
ENDBRANCH   3  17
TORSDOF 8
