REMARK SMILES CC(C)(C)[C@H]([NH2+]Cc1ccc2c(c1)OCO2)c1cn(Cc2ccccc2-n2cccn2)nn1
REMARK SMILES IDX 17 1 18 2 19 3 32 4 33 5 5 7 2 8 1 9 3 10 4 11 6 12 7 15
REMARK SMILES IDX 8 16 9 17 13 18 10 19 12 20 11 21 14 22 16 23 15 24 20 25
REMARK SMILES IDX 21 26 22 27 26 28 23 29 25 30 24 31 27 32 28 33 31 34 29 35
REMARK SMILES IDX 30 36
REMARK H PARENT 18 6 6 13 6 14
ROOT
ATOM     1   C14 UNL     1       1.255   0.172   1.831  1.00  0.00     0.127 A   
ATOM     2   C15 UNL     1      -0.005  -0.378   1.835  1.00  0.00     0.046 A   
ATOM     3   N2  UNL     1      -0.833   0.677   2.102  1.00  0.00    -0.208 N   
ATOM     4   N5  UNL     1      -0.110   1.795   2.333  1.00  0.00    -0.076 NA  
ATOM     5   N6  UNL     1       1.167   1.501   2.151  1.00  0.00    -0.132 NA  
ATOM     6   H20 UNL     1      -0.384  -1.371   1.633  1.00  0.00     0.083 HD  
ENDROOT
BRANCH   1   7
ATOM     7   C5  UNL     1       2.574  -0.420   1.449  1.00  0.00     0.120 C   
BRANCH   7   8
ATOM     8   C2  UNL     1       3.437  -0.917   2.662  1.00  0.00     0.010 C   
ATOM     9   C1  UNL     1       3.889   0.229   3.589  1.00  0.00     0.017 C   
ATOM     10  C3  UNL     1       2.631  -1.932   3.505  1.00  0.00     0.017 C   
ATOM     11  C4  UNL     1       4.698  -1.655   2.155  1.00  0.00     0.017 C   
ENDBRANCH   7   8
BRANCH   7  12
ATOM     12  N1  UNL     1       3.355   0.585   0.621  1.00  0.00     0.250 N   
ATOM     13  H11 UNL     1       3.430   1.436   1.194  1.00  0.00     0.199 HD  
ATOM     14  H12 UNL     1       4.301   0.248   0.438  1.00  0.00     0.199 HD  
BRANCH  12  15
ATOM     15  C6  UNL     1       2.738   1.003  -0.677  1.00  0.00     0.164 C   
BRANCH  15  16
ATOM     16  C7  UNL     1       2.500  -0.140  -1.624  1.00  0.00    -0.002 A   
ATOM     17  C8  UNL     1       1.178  -0.547  -1.924  1.00  0.00     0.012 A   
ATOM     18  C12 UNL     1       3.582  -0.829  -2.197  1.00  0.00     0.045 A   
ATOM     19  C9  UNL     1       0.934  -1.627  -2.777  1.00  0.00     0.037 A   
ATOM     20  C11 UNL     1       3.306  -1.894  -3.030  1.00  0.00     0.109 A   
ATOM     21  C10 UNL     1       2.020  -2.283  -3.312  1.00  0.00     0.108 A   
ATOM     22  O1  UNL     1       4.232  -2.670  -3.651  1.00  0.00    -0.316 OA  
ATOM     23  O2  UNL     1       1.974  -3.353  -4.148  1.00  0.00    -0.316 OA  
ATOM     24  C13 UNL     1       3.380  -3.580  -4.384  1.00  0.00     0.337 C   
ENDBRANCH  15  16
ENDBRANCH  12  15
ENDBRANCH   7  12
ENDBRANCH   1   7
BRANCH   3  25
ATOM     25  C16 UNL     1      -2.281   0.677   2.236  1.00  0.00     0.171 C   
BRANCH  25  26
ATOM     26  C17 UNL     1      -2.964   1.590   1.236  1.00  0.00    -0.005 A   
ATOM     27  C18 UNL     1      -3.152   2.929   1.657  1.00  0.00     0.007 A   
ATOM     28  C22 UNL     1      -3.451   1.215  -0.043  1.00  0.00     0.061 A   
ATOM     29  C19 UNL     1      -3.811   3.865   0.864  1.00  0.00     0.000 A   
ATOM     30  C21 UNL     1      -4.126   2.178  -0.825  1.00  0.00     0.026 A   
ATOM     31  C20 UNL     1      -4.303   3.487  -0.375  1.00  0.00     0.002 A   
BRANCH  28  32
ATOM     32  N3  UNL     1      -3.290  -0.098  -0.591  1.00  0.00    -0.201 N   
ATOM     33  C23 UNL     1      -3.906  -0.631  -1.709  1.00  0.00     0.103 A   
ATOM     34  N4  UNL     1      -2.421  -0.997  -0.057  1.00  0.00    -0.185 NA  
ATOM     35  C24 UNL     1      -3.441  -1.913  -1.870  1.00  0.00     0.039 A   
ATOM     36  C25 UNL     1      -2.538  -2.087  -0.816  1.00  0.00     0.133 A   
ENDBRANCH  28  32
ENDBRANCH  25  26
ENDBRANCH   3  25
TORSDOF 8
