REMARK SMILES O=C(c1ccc(Cl)nc1)n1cc([C@@H]([NH2+]Cc2ccc3c(c2)OCO3)C2CCCC2)nn1
REMARK SMILES IDX 10 1 11 2 12 3 30 4 31 5 2 6 1 7 3 8 4 9 9 10 5 11 8 12 6 13
REMARK SMILES IDX 7 14 13 15 14 16 15 19 16 20 17 21 21 22 18 23 20 24 19 25
REMARK SMILES IDX 22 26 24 27 23 28 25 29 26 30 29 31 27 32 28 33
REMARK H PARENT 14 17 14 18
ROOT
ATOM     1   N2  UNL     1      -1.804  -1.452   2.790  1.00  0.00    -0.143 N   
ATOM     2   C7  UNL     1      -1.253  -0.214   2.503  1.00  0.00     0.139 A   
ATOM     3   C8  UNL     1      -1.403  -0.060   1.145  1.00  0.00     0.128 A   
ATOM     4   N4  UNL     1      -2.006  -1.179   0.637  1.00  0.00    -0.131 NA  
ATOM     5   N5  UNL     1      -2.246  -2.012   1.638  1.00  0.00    -0.068 NA  
ENDROOT
BRANCH   1   6
ATOM     6   C1  UNL     1      -1.946  -2.069   4.043  1.00  0.00     0.272 C   
ATOM     7   O1  UNL     1      -1.556  -1.408   5.005  1.00  0.00    -0.269 OA  
BRANCH   6   8
ATOM     8   C2  UNL     1      -2.526  -3.409   4.302  1.00  0.00     0.058 A   
ATOM     9   C3  UNL     1      -2.541  -4.458   3.379  1.00  0.00     0.018 A   
ATOM     10  C6  UNL     1      -3.064  -3.656   5.563  1.00  0.00     0.126 A   
ATOM     11  C4  UNL     1      -3.109  -5.683   3.740  1.00  0.00     0.042 A   
ATOM     12  N1  UNL     1      -3.625  -4.832   5.935  1.00  0.00    -0.244 NA  
ATOM     13  C5  UNL     1      -3.633  -5.814   5.014  1.00  0.00     0.129 A   
ATOM     14  CL1 UNL     1      -4.349  -7.282   5.528  1.00  0.00    -0.062 Cl  
ENDBRANCH   6   8
ENDBRANCH   1   6
BRANCH   3  15
ATOM     15  C9  UNL     1      -1.020   1.067   0.234  1.00  0.00     0.117 C   
BRANCH  15  16
ATOM     16  N3  UNL     1      -0.864   0.565  -1.181  1.00  0.00     0.249 N   
ATOM     17  H6  UNL     1      -0.989   1.322  -1.859  1.00  0.00     0.199 HD  
ATOM     18  H7  UNL     1      -1.632  -0.103  -1.340  1.00  0.00     0.199 HD  
BRANCH  16  19
ATOM     19  C10 UNL     1       0.412  -0.145  -1.488  1.00  0.00     0.164 C   
BRANCH  19  20
ATOM     20  C11 UNL     1       1.584   0.793  -1.579  1.00  0.00    -0.002 A   
ATOM     21  C12 UNL     1       1.732   1.646  -2.700  1.00  0.00     0.012 A   
ATOM     22  C16 UNL     1       2.524   0.853  -0.536  1.00  0.00     0.045 A   
ATOM     23  C13 UNL     1       2.796   2.552  -2.778  1.00  0.00     0.037 A   
ATOM     24  C15 UNL     1       3.559   1.758  -0.644  1.00  0.00     0.109 A   
ATOM     25  C14 UNL     1       3.691   2.584  -1.732  1.00  0.00     0.108 A   
ATOM     26  O2  UNL     1       4.541   1.950   0.276  1.00  0.00    -0.316 OA  
ATOM     27  O3  UNL     1       4.775   3.397  -1.637  1.00  0.00    -0.316 OA  
ATOM     28  C17 UNL     1       5.333   2.969  -0.376  1.00  0.00     0.337 C   
ENDBRANCH  19  20
ENDBRANCH  16  19
ENDBRANCH  15  16
BRANCH  15  29
ATOM     29  C18 UNL     1      -2.044   2.218   0.295  1.00  0.00     0.043 C   
ATOM     30  C19 UNL     1      -3.437   1.930  -0.286  1.00  0.00     0.010 C   
ATOM     31  C22 UNL     1      -1.611   3.499  -0.423  1.00  0.00     0.010 C   
ATOM     32  C20 UNL     1      -3.981   3.282  -0.760  1.00  0.00     0.001 C   
ATOM     33  C21 UNL     1      -2.897   4.310  -0.457  1.00  0.00     0.001 C   
ENDBRANCH  15  29
ENDBRANCH   3  15
TORSDOF 7
