REMARK SMILES Cc1cccc(F)c1Cn1cc([C@@H]([NH2+]Cc2ccc3c(c2)OCO3)C2CCCCC2)nn1
REMARK SMILES IDX 10 1 11 2 12 3 31 4 32 5 9 7 8 8 2 9 3 10 4 11 6 12 5 13
REMARK SMILES IDX 1 14 7 15 13 16 14 17 15 20 16 21 17 22 21 23 18 24 20 25
REMARK SMILES IDX 19 26 22 27 24 28 23 29 25 30 26 31 30 32 27 33 29 34 28 35
REMARK H PARENT 11 6 14 18 14 19
ROOT
ATOM     1   N1  UNL     1       0.389   2.258   2.455  1.00  0.00    -0.208 N   
ATOM     2   C9  UNL     1      -0.171   1.022   2.271  1.00  0.00     0.046 A   
ATOM     3   C10 UNL     1      -0.761   1.100   1.028  1.00  0.00     0.127 A   
ATOM     4   N3  UNL     1      -0.622   2.382   0.552  1.00  0.00    -0.132 NA  
ATOM     5   N4  UNL     1       0.060   3.083   1.444  1.00  0.00    -0.076 NA  
ATOM     6   H9  UNL     1      -0.059   0.229   2.997  1.00  0.00     0.083 HD  
ENDROOT
BRANCH   1   7
ATOM     7   C8  UNL     1       1.197   2.728   3.569  1.00  0.00     0.172 C   
BRANCH   7   8
ATOM     8   C7  UNL     1       2.642   2.328   3.404  1.00  0.00     0.010 A   
ATOM     9   C2  UNL     1       3.619   3.174   2.832  1.00  0.00    -0.043 A   
ATOM     10  C3  UNL     1       4.943   2.711   2.716  1.00  0.00     0.004 A   
ATOM     11  C4  UNL     1       5.303   1.430   3.146  1.00  0.00     0.003 A   
ATOM     12  C6  UNL     1       3.030   1.045   3.821  1.00  0.00     0.128 A   
ATOM     13  C5  UNL     1       4.341   0.594   3.700  1.00  0.00     0.039 A   
ATOM     14  C1  UNL     1       3.303   4.573   2.381  1.00  0.00     0.045 C   
ATOM     15  F1  UNL     1       2.115   0.218   4.351  1.00  0.00    -0.207 F   
ENDBRANCH   7   8
ENDBRANCH   1   7
BRANCH   3  16
ATOM     16  C11 UNL     1      -1.507   0.099   0.194  1.00  0.00     0.117 C   
BRANCH  16  17
ATOM     17  N2  UNL     1      -2.179   0.850  -0.944  1.00  0.00     0.249 N   
ATOM     18  H11 UNL     1      -1.569   0.850  -1.767  1.00  0.00     0.199 HD  
ATOM     19  H12 UNL     1      -2.187   1.843  -0.653  1.00  0.00     0.199 HD  
BRANCH  17  20
ATOM     20  C12 UNL     1      -3.568   0.469  -1.308  1.00  0.00     0.164 C   
BRANCH  20  21
ATOM     21  C13 UNL     1      -3.652  -0.828  -2.062  1.00  0.00    -0.002 A   
ATOM     22  C14 UNL     1      -4.325  -1.944  -1.508  1.00  0.00     0.012 A   
ATOM     23  C18 UNL     1      -3.041  -0.948  -3.326  1.00  0.00     0.045 A   
ATOM     24  C15 UNL     1      -4.377  -3.165  -2.191  1.00  0.00     0.037 A   
ATOM     25  C17 UNL     1      -3.095  -2.170  -3.964  1.00  0.00     0.109 A   
ATOM     26  C16 UNL     1      -3.744  -3.248  -3.414  1.00  0.00     0.108 A   
ATOM     27  O1  UNL     1      -2.527  -2.457  -5.166  1.00  0.00    -0.316 OA  
ATOM     28  O2  UNL     1      -3.680  -4.349  -4.207  1.00  0.00    -0.316 OA  
ATOM     29  C19 UNL     1      -2.894  -3.848  -5.315  1.00  0.00     0.337 C   
ENDBRANCH  20  21
ENDBRANCH  17  20
ENDBRANCH  16  17
BRANCH  16  30
ATOM     30  C20 UNL     1      -0.625  -1.044  -0.383  1.00  0.00     0.043 C   
ATOM     31  C21 UNL     1      -0.234  -2.067   0.704  1.00  0.00     0.010 C   
ATOM     32  C25 UNL     1       0.631  -0.561  -1.136  1.00  0.00     0.010 C   
ATOM     33  C22 UNL     1       0.561  -3.234   0.120  1.00  0.00     0.001 C   
ATOM     34  C24 UNL     1       1.430  -1.731  -1.710  1.00  0.00     0.001 C   
ATOM     35  C23 UNL     1       1.797  -2.749  -0.635  1.00  0.00     0.000 C   
ENDBRANCH  16  30
ENDBRANCH   3  16
TORSDOF 7
