REMARK SMILES O[C@H](Cn1cc([C@@H]([NH2+]Cc2ccc3c(c2)OCO3)C2CCCCC2)nn1)c1ccc(F)cn1
REMARK SMILES IDX 4 1 5 2 6 3 25 4 26 5 3 7 2 8 1 9 27 11 28 12 33 13 29 14
REMARK SMILES IDX 32 15 30 16 31 17 7 18 8 19 9 22 10 23 11 24 15 25 12 26
REMARK SMILES IDX 14 27 13 28 16 29 18 30 17 31 19 32 20 33 24 34 21 35 23 36
REMARK SMILES IDX 22 37
REMARK H PARENT 5 6 1 10 8 20 8 21
ROOT
ATOM     1   N1  UNL     1       0.354  -0.388  -2.144  1.00  0.00    -0.209 N   
ATOM     2   C3  UNL     1       0.607  -0.352  -0.801  1.00  0.00     0.045 A   
ATOM     3   C4  UNL     1      -0.171   0.686  -0.337  1.00  0.00     0.127 A   
ATOM     4   N3  UNL     1      -0.904   1.185  -1.384  1.00  0.00    -0.132 NA  
ATOM     5   N4  UNL     1      -0.581   0.516  -2.479  1.00  0.00    -0.076 NA  
ATOM     6   H5  UNL     1       1.320  -1.026  -0.348  1.00  0.00     0.083 HD  
ENDROOT
BRANCH   1   7
ATOM     7   C2  UNL     1       0.922  -1.267  -3.147  1.00  0.00     0.172 C   
BRANCH   7   8
ATOM     8   C1  UNL     1       2.287  -0.765  -3.607  1.00  0.00     0.182 C   
BRANCH   8   9
ATOM     9   O1  UNL     1       3.243  -1.005  -2.556  1.00  0.00    -0.385 OA  
ATOM     10  H1  UNL     1       3.867  -1.673  -2.920  1.00  0.00     0.211 HD  
ENDBRANCH   8   9
BRANCH   8  11
ATOM     11  C20 UNL     1       2.725  -1.508  -4.855  1.00  0.00     0.071 A   
ATOM     12  C21 UNL     1       2.348  -1.068  -6.125  1.00  0.00     0.030 A   
ATOM     13  N5  UNL     1       3.489  -2.617  -4.655  1.00  0.00    -0.255 NA  
ATOM     14  C22 UNL     1       2.773  -1.792  -7.238  1.00  0.00     0.043 A   
ATOM     15  C24 UNL     1       3.887  -3.297  -5.761  1.00  0.00     0.150 A   
ATOM     16  C23 UNL     1       3.553  -2.921  -7.049  1.00  0.00     0.141 A   
ATOM     17  F1  UNL     1       3.974  -3.636  -8.099  1.00  0.00    -0.205 F   
ENDBRANCH   8  11
ENDBRANCH   7   8
ENDBRANCH   1   7
BRANCH   3  18
ATOM     18  C5  UNL     1      -0.392   1.258   1.028  1.00  0.00     0.117 C   
BRANCH  18  19
ATOM     19  N2  UNL     1      -1.367   0.434   1.821  1.00  0.00     0.249 N   
ATOM     20  H7  UNL     1      -1.389   0.748   2.797  1.00  0.00     0.199 HD  
ATOM     21  H8  UNL     1      -1.048  -0.542   1.840  1.00  0.00     0.199 HD  
BRANCH  19  22
ATOM     22  C6  UNL     1      -2.769   0.452   1.303  1.00  0.00     0.164 C   
BRANCH  22  23
ATOM     23  C7  UNL     1      -3.658  -0.367   2.197  1.00  0.00    -0.002 A   
ATOM     24  C8  UNL     1      -3.903  -1.730   1.904  1.00  0.00     0.012 A   
ATOM     25  C12 UNL     1      -4.203   0.201   3.361  1.00  0.00     0.045 A   
ATOM     26  C9  UNL     1      -4.688  -2.517   2.754  1.00  0.00     0.037 A   
ATOM     27  C11 UNL     1      -4.970  -0.604   4.178  1.00  0.00     0.109 A   
ATOM     28  C10 UNL     1      -5.205  -1.925   3.884  1.00  0.00     0.108 A   
ATOM     29  O2  UNL     1      -5.562  -0.216   5.338  1.00  0.00    -0.316 OA  
ATOM     30  O3  UNL     1      -5.980  -2.534   4.820  1.00  0.00    -0.316 OA  
ATOM     31  C13 UNL     1      -6.230  -1.439   5.728  1.00  0.00     0.337 C   
ENDBRANCH  22  23
ENDBRANCH  19  22
ENDBRANCH  18  19
BRANCH  18  32
ATOM     32  C14 UNL     1       0.908   1.513   1.842  1.00  0.00     0.043 C   
ATOM     33  C15 UNL     1       1.510   0.266   2.520  1.00  0.00     0.010 C   
ATOM     34  C19 UNL     1       0.678   2.613   2.904  1.00  0.00     0.010 C   
ATOM     35  C16 UNL     1       2.797   0.602   3.275  1.00  0.00     0.001 C   
ATOM     36  C18 UNL     1       1.958   2.945   3.668  1.00  0.00     0.001 C   
ATOM     37  C17 UNL     1       2.572   1.704   4.304  1.00  0.00     0.000 C   
ENDBRANCH  18  32
ENDBRANCH   3  18
TORSDOF 9
