REMARK SMILES O[C@@H](Cn1cc([C@@H]([NH2+]Cc2ccc3c(c2)OCO3)C2CCCCC2)nn1)c1ccc(F)cn1
REMARK SMILES IDX 4 1 5 2 6 3 25 4 26 5 3 7 2 8 1 9 27 11 28 12 33 13 29 14
REMARK SMILES IDX 32 15 30 16 31 17 7 18 8 19 9 22 10 23 11 24 15 25 12 26
REMARK SMILES IDX 14 27 13 28 16 29 18 30 17 31 19 32 20 33 24 34 21 35 23 36
REMARK SMILES IDX 22 37
REMARK H PARENT 5 6 1 10 8 20 8 21
ROOT
ATOM     1   N1  UNL     1       0.069   3.191  -1.336  1.00  0.00    -0.209 N   
ATOM     2   C3  UNL     1       0.774   2.027  -1.468  1.00  0.00     0.045 A   
ATOM     3   C4  UNL     1      -0.013   1.087  -0.842  1.00  0.00     0.127 A   
ATOM     4   N3  UNL     1      -1.137   1.699  -0.352  1.00  0.00    -0.132 NA  
ATOM     5   N4  UNL     1      -1.089   2.977  -0.685  1.00  0.00    -0.076 NA  
ATOM     6   H5  UNL     1       1.735   1.985  -1.964  1.00  0.00     0.083 HD  
ENDROOT
BRANCH   1   7
ATOM     7   C2  UNL     1       0.435   4.503  -1.822  1.00  0.00     0.172 C   
BRANCH   7   8
ATOM     8   C1  UNL     1      -0.051   5.675  -0.962  1.00  0.00     0.182 C   
BRANCH   8   9
ATOM     9   O1  UNL     1       0.385   6.890  -1.593  1.00  0.00    -0.385 OA  
ATOM     10  H1  UNL     1       1.158   7.207  -1.084  1.00  0.00     0.211 HD  
ENDBRANCH   8   9
BRANCH   8  11
ATOM     11  C20 UNL     1       0.515   5.623   0.445  1.00  0.00     0.071 A   
ATOM     12  C21 UNL     1      -0.329   5.474   1.548  1.00  0.00     0.030 A   
ATOM     13  N5  UNL     1       1.863   5.765   0.566  1.00  0.00    -0.255 NA  
ATOM     14  C22 UNL     1       0.228   5.466   2.826  1.00  0.00     0.043 A   
ATOM     15  C24 UNL     1       2.371   5.761   1.825  1.00  0.00     0.150 A   
ATOM     16  C23 UNL     1       1.599   5.613   2.962  1.00  0.00     0.141 A   
ATOM     17  F1  UNL     1       2.163   5.609   4.174  1.00  0.00    -0.205 F   
ENDBRANCH   8  11
ENDBRANCH   7   8
ENDBRANCH   1   7
BRANCH   3  18
ATOM     18  C5  UNL     1       0.201  -0.374  -0.593  1.00  0.00     0.117 C   
BRANCH  18  19
ATOM     19  N2  UNL     1      -0.539  -0.805   0.651  1.00  0.00     0.249 N   
ATOM     20  H7  UNL     1      -0.655  -1.820   0.679  1.00  0.00     0.199 HD  
ATOM     21  H8  UNL     1      -1.480  -0.392   0.580  1.00  0.00     0.199 HD  
BRANCH  19  22
ATOM     22  C6  UNL     1       0.045  -0.345   1.946  1.00  0.00     0.164 C   
BRANCH  22  23
ATOM     23  C7  UNL     1       1.303  -1.084   2.305  1.00  0.00    -0.002 A   
ATOM     24  C8  UNL     1       2.564  -0.452   2.188  1.00  0.00     0.012 A   
ATOM     25  C12 UNL     1       1.238  -2.421   2.736  1.00  0.00     0.045 A   
ATOM     26  C9  UNL     1       3.745  -1.141   2.486  1.00  0.00     0.037 A   
ATOM     27  C11 UNL     1       2.421  -3.071   3.024  1.00  0.00     0.109 A   
ATOM     28  C10 UNL     1       3.639  -2.450   2.900  1.00  0.00     0.108 A   
ATOM     29  O2  UNL     1       2.533  -4.356   3.449  1.00  0.00    -0.316 OA  
ATOM     30  O3  UNL     1       4.673  -3.267   3.230  1.00  0.00    -0.316 OA  
ATOM     31  C13 UNL     1       3.963  -4.458   3.637  1.00  0.00     0.337 C   
ENDBRANCH  22  23
ENDBRANCH  19  22
ENDBRANCH  18  19
BRANCH  18  32
ATOM     32  C14 UNL     1      -0.225  -1.243  -1.808  1.00  0.00     0.043 C   
ATOM     33  C15 UNL     1      -1.743  -1.256  -2.072  1.00  0.00     0.010 C   
ATOM     34  C19 UNL     1       0.306  -2.686  -1.691  1.00  0.00     0.010 C   
ATOM     35  C16 UNL     1      -2.089  -2.090  -3.306  1.00  0.00     0.001 C   
ATOM     36  C18 UNL     1      -0.042  -3.514  -2.927  1.00  0.00     0.001 C   
ATOM     37  C17 UNL     1      -1.542  -3.509  -3.201  1.00  0.00     0.000 C   
ENDBRANCH  18  32
ENDBRANCH   3  18
TORSDOF 9
