REMARK SMILES [O-][S+]([O-])c1ccccc1Cn1cc([C@@H]([NH2+]Cc2ccc3c(c2)OCO3)C2CCCCC2)nn1
REMARK SMILES IDX 11 1 12 2 13 3 32 4 33 5 10 7 9 8 4 9 5 10 6 11 8 12 7 13
REMARK SMILES IDX 2 14 1 15 3 16 14 17 15 18 16 21 17 22 18 23 22 24 19 25
REMARK SMILES IDX 21 26 20 27 23 28 25 29 24 30 26 31 27 32 31 33 28 34 30 35
REMARK SMILES IDX 29 36
REMARK H PARENT 12 6 15 19 15 20
ROOT
ATOM     1   N1  UNL     1      -2.024   1.517   0.769  1.00  0.00    -0.208 N   
ATOM     2   C8  UNL     1      -0.699   1.208   0.902  1.00  0.00     0.046 A   
ATOM     3   C9  UNL     1      -0.747  -0.152   1.123  1.00  0.00     0.127 A   
ATOM     4   N3  UNL     1      -2.015  -0.494   1.518  1.00  0.00    -0.132 NA  
ATOM     5   N4  UNL     1      -2.789   0.572   1.351  1.00  0.00    -0.076 NA  
ATOM     6   H7  UNL     1       0.070   1.868   0.525  1.00  0.00     0.083 HD  
ENDROOT
BRANCH   1   7
ATOM     7   C7  UNL     1      -2.568   2.631   0.018  1.00  0.00     0.174 C   
BRANCH   7   8
ATOM     8   C6  UNL     1      -3.521   2.228  -1.085  1.00  0.00     0.028 A   
ATOM     9   C1  UNL     1      -3.165   1.514  -2.248  1.00  0.00     0.172 A   
ATOM     10  C2  UNL     1      -4.151   1.244  -3.216  1.00  0.00     0.063 A   
ATOM     11  C3  UNL     1      -5.468   1.675  -3.057  1.00  0.00     0.005 A   
ATOM     12  C5  UNL     1      -4.866   2.645  -0.941  1.00  0.00     0.011 A   
ATOM     13  C4  UNL     1      -5.827   2.375  -1.916  1.00  0.00     0.001 A   
BRANCH   9  14
ATOM     14  S1  UNL     1      -1.519   0.823  -2.645  1.00  0.00     0.041 S   
ATOM     15  O1  UNL     1      -1.534  -0.639  -2.262  1.00  0.00    -0.672 OA  
ATOM     16  O2  UNL     1      -0.415   1.586  -1.954  1.00  0.00    -0.672 OA  
ENDBRANCH   9  14
ENDBRANCH   7   8
ENDBRANCH   1   7
BRANCH   3  17
ATOM     17  C10 UNL     1       0.247  -1.186   0.698  1.00  0.00     0.117 C   
BRANCH  17  18
ATOM     18  N2  UNL     1       0.475  -1.019  -0.767  1.00  0.00     0.249 N   
ATOM     19  H9  UNL     1       0.678  -0.036  -1.028  1.00  0.00     0.199 HD  
ATOM     20  H10 UNL     1      -0.484  -1.039  -1.199  1.00  0.00     0.199 HD  
BRANCH  18  21
ATOM     21  C11 UNL     1       1.249  -1.984  -1.558  1.00  0.00     0.164 C   
BRANCH  21  22
ATOM     22  C12 UNL     1       2.626  -1.488  -1.903  1.00  0.00    -0.002 A   
ATOM     23  C13 UNL     1       2.779  -0.349  -2.732  1.00  0.00     0.012 A   
ATOM     24  C17 UNL     1       3.767  -2.131  -1.400  1.00  0.00     0.045 A   
ATOM     25  C14 UNL     1       4.045   0.154  -3.038  1.00  0.00     0.037 A   
ATOM     26  C16 UNL     1       5.000  -1.608  -1.718  1.00  0.00     0.109 A   
ATOM     27  C15 UNL     1       5.136  -0.495  -2.511  1.00  0.00     0.108 A   
ATOM     28  O3  UNL     1       6.197  -2.095  -1.296  1.00  0.00    -0.316 OA  
ATOM     29  O4  UNL     1       6.433  -0.141  -2.689  1.00  0.00    -0.316 OA  
ATOM     30  C18 UNL     1       7.101  -1.160  -1.919  1.00  0.00     0.337 C   
ENDBRANCH  21  22
ENDBRANCH  18  21
ENDBRANCH  17  18
BRANCH  17  31
ATOM     31  C19 UNL     1       1.574  -1.193   1.494  1.00  0.00     0.043 C   
ATOM     32  C20 UNL     1       1.339  -1.557   2.974  1.00  0.00     0.010 C   
ATOM     33  C24 UNL     1       2.407   0.099   1.406  1.00  0.00     0.010 C   
ATOM     34  C21 UNL     1       2.660  -1.696   3.729  1.00  0.00     0.001 C   
ATOM     35  C23 UNL     1       3.735  -0.044   2.147  1.00  0.00     0.001 C   
ATOM     36  C22 UNL     1       3.521  -0.443   3.605  1.00  0.00     0.000 C   
ENDBRANCH  17  31
ENDBRANCH   3  17
TORSDOF 8
