REMARK SMILES c1cc2c(cc1C[NH2+][C@H](c1cn(-c3ccc4c(c3)NCC4)nn1)C1CCCC1)OCO2
REMARK SMILES IDX 9 1 8 2 7 5 6 6 1 7 2 8 3 9 5 10 4 11 31 12 29 13 30 14
REMARK SMILES IDX 10 15 11 16 23 17 12 18 22 19 13 20 14 21 18 22 15 23 17 24
REMARK SMILES IDX 16 25 19 26 21 27 20 28 24 30 25 31 28 32 26 33 27 34
REMARK H PARENT 8 3 8 4 19 29
ROOT
ATOM     1   C8  UNL     1      -1.503  -0.035  -1.057  1.00  0.00     0.117 C   
ENDROOT
BRANCH   1   2
ATOM     2   N1  UNL     1      -2.487   0.982  -0.544  1.00  0.00     0.249 N   
ATOM     3   H6  UNL     1      -3.262   1.142  -1.194  1.00  0.00     0.199 HD  
ATOM     4   H7  UNL     1      -1.981   1.879  -0.478  1.00  0.00     0.199 HD  
BRANCH   2   5
ATOM     5   C7  UNL     1      -3.045   0.700   0.809  1.00  0.00     0.164 C   
BRANCH   5   6
ATOM     6   C6  UNL     1      -3.944   1.821   1.248  1.00  0.00    -0.002 A   
ATOM     7   C1  UNL     1      -5.338   1.759   1.010  1.00  0.00     0.012 A   
ATOM     8   C2  UNL     1      -6.175   2.819   1.377  1.00  0.00     0.037 A   
ATOM     9   C3  UNL     1      -5.598   3.921   1.969  1.00  0.00     0.108 A   
ATOM     10  C5  UNL     1      -3.393   2.966   1.850  1.00  0.00     0.045 A   
ATOM     11  C4  UNL     1      -4.247   3.991   2.199  1.00  0.00     0.109 A   
ATOM     12  O2  UNL     1      -6.254   5.035   2.385  1.00  0.00    -0.316 OA  
ATOM     13  O1  UNL     1      -3.881   5.159   2.788  1.00  0.00    -0.316 OA  
ATOM     14  C24 UNL     1      -5.164   5.809   2.932  1.00  0.00     0.337 C   
ENDBRANCH   5   6
ENDBRANCH   2   5
ENDBRANCH   1   2
BRANCH   1  15
ATOM     15  C9  UNL     1      -0.177   0.152  -0.390  1.00  0.00     0.127 A   
ATOM     16  C10 UNL     1       0.867  -0.720  -0.176  1.00  0.00     0.135 A   
ATOM     17  N5  UNL     1       0.137   1.365   0.155  1.00  0.00    -0.131 NA  
ATOM     18  N2  UNL     1       1.815   0.013   0.513  1.00  0.00    -0.181 N   
ATOM     19  N4  UNL     1       1.333   1.269   0.709  1.00  0.00    -0.071 NA  
BRANCH  18  20
ATOM     20  C11 UNL     1       3.084  -0.392   0.994  1.00  0.00     0.059 A   
ATOM     21  C12 UNL     1       3.875   0.530   1.717  1.00  0.00     0.026 A   
ATOM     22  C16 UNL     1       3.547  -1.699   0.774  1.00  0.00     0.049 A   
ATOM     23  C13 UNL     1       5.115   0.150   2.239  1.00  0.00     0.008 A   
ATOM     24  C15 UNL     1       4.791  -2.047   1.271  1.00  0.00     0.031 A   
ATOM     25  C14 UNL     1       5.550  -1.141   2.009  1.00  0.00    -0.025 A   
ATOM     26  N3  UNL     1       5.370  -3.336   1.211  1.00  0.00    -0.344 N   
ATOM     27  C18 UNL     1       6.784  -1.818   2.499  1.00  0.00     0.056 C   
ATOM     28  C17 UNL     1       6.764  -3.092   1.635  1.00  0.00     0.106 C   
ATOM     29  H13 UNL     1       5.285  -3.753   0.288  1.00  0.00     0.147 HD  
ENDBRANCH  18  20
ENDBRANCH   1  15
BRANCH   1  30
ATOM     30  C19 UNL     1      -1.381   0.048  -2.591  1.00  0.00     0.043 C   
ATOM     31  C20 UNL     1      -1.088   1.432  -3.175  1.00  0.00     0.010 C   
ATOM     32  C23 UNL     1      -2.637  -0.378  -3.358  1.00  0.00     0.010 C   
ATOM     33  C21 UNL     1      -1.333   1.231  -4.665  1.00  0.00     0.001 C   
ATOM     34  C22 UNL     1      -2.472   0.217  -4.757  1.00  0.00     0.001 C   
ENDBRANCH   1  30
TORSDOF 6
