REMARK SMILES Cc1cc(CO)nc(-n2cc([C@@H]([NH2+]Cc3ccc4c(c3)OCO4)C(C)(C)C)nn2)c1
REMARK SMILES IDX 9 1 10 2 11 3 28 4 29 5 8 6 2 7 3 8 30 9 4 10 7 11 1 12 5 13
REMARK SMILES IDX 6 14 12 16 13 17 14 20 15 21 16 22 20 23 17 24 19 25 18 26
REMARK SMILES IDX 21 27 23 28 22 29 24 30 25 31 26 32 27 33
REMARK H PARENT 6 15 13 18 13 19
ROOT
ATOM     1   N2  UNL     1      -1.067  -0.729   1.633  1.00  0.00    -0.162 N   
ATOM     2   C7  UNL     1      -0.798   0.133   0.588  1.00  0.00     0.137 A   
ATOM     3   C8  UNL     1      -0.993  -0.617  -0.548  1.00  0.00     0.128 A   
ATOM     4   N4  UNL     1      -1.400  -1.874  -0.190  1.00  0.00    -0.131 NA  
ATOM     5   N5  UNL     1      -1.468  -1.926   1.131  1.00  0.00    -0.070 NA  
ENDROOT
BRANCH   1   6
ATOM     6   C6  UNL     1      -0.913  -0.463   3.019  1.00  0.00     0.146 A   
ATOM     7   C2  UNL     1      -1.094  -1.170   5.307  1.00  0.00    -0.046 A   
ATOM     8   C3  UNL     1      -0.586   0.074   5.688  1.00  0.00     0.030 A   
ATOM     9   C22 UNL     1      -1.267  -1.440   3.947  1.00  0.00     0.050 A   
ATOM     10  C4  UNL     1      -0.241   0.995   4.704  1.00  0.00     0.068 A   
ATOM     11  N1  UNL     1      -0.405   0.750   3.373  1.00  0.00    -0.233 NA  
ATOM     12  C1  UNL     1      -1.501  -2.179   6.341  1.00  0.00     0.044 C   
BRANCH  10  13
ATOM     13  C5  UNL     1       0.337   2.339   5.088  1.00  0.00     0.212 C   
BRANCH  13  14
ATOM     14  O1  UNL     1       0.869   3.002   3.939  1.00  0.00    -0.390 OA  
ATOM     15  H7  UNL     1       0.547   2.482   3.178  1.00  0.00     0.211 HD  
ENDBRANCH  13  14
ENDBRANCH  10  13
ENDBRANCH   1   6
BRANCH   3  16
ATOM     16  C9  UNL     1      -0.709  -0.308  -1.988  1.00  0.00     0.120 C   
BRANCH  16  17
ATOM     17  N3  UNL     1       0.071  -1.471  -2.580  1.00  0.00     0.250 N   
ATOM     18  H10 UNL     1      -0.193  -1.640  -3.553  1.00  0.00     0.199 HD  
ATOM     19  H11 UNL     1      -0.233  -2.310  -2.062  1.00  0.00     0.199 HD  
BRANCH  17  20
ATOM     20  C10 UNL     1       1.562  -1.385  -2.501  1.00  0.00     0.164 C   
BRANCH  20  21
ATOM     21  C11 UNL     1       2.097  -1.302  -1.099  1.00  0.00    -0.002 A   
ATOM     22  C12 UNL     1       2.074  -2.438  -0.252  1.00  0.00     0.012 A   
ATOM     23  C16 UNL     1       2.560  -0.075  -0.592  1.00  0.00     0.045 A   
ATOM     24  C13 UNL     1       2.477  -2.347   1.085  1.00  0.00     0.037 A   
ATOM     25  C15 UNL     1       2.940  -0.018   0.733  1.00  0.00     0.109 A   
ATOM     26  C14 UNL     1       2.896  -1.121   1.550  1.00  0.00     0.108 A   
ATOM     27  O2  UNL     1       3.362   1.096   1.384  1.00  0.00    -0.316 OA  
ATOM     28  O3  UNL     1       3.291  -0.841   2.818  1.00  0.00    -0.316 OA  
ATOM     29  C17 UNL     1       3.600   0.566   2.708  1.00  0.00     0.337 C   
ENDBRANCH  20  21
ENDBRANCH  17  20
ENDBRANCH  16  17
BRANCH  16  30
ATOM     30  C18 UNL     1      -1.985  -0.002  -2.845  1.00  0.00     0.010 C   
ATOM     31  C19 UNL     1      -2.920  -1.218  -2.995  1.00  0.00     0.017 C   
ATOM     32  C20 UNL     1      -2.789   1.151  -2.201  1.00  0.00     0.017 C   
ATOM     33  C21 UNL     1      -1.573   0.472  -4.259  1.00  0.00     0.017 C   
ENDBRANCH  16  30
ENDBRANCH   3  16
TORSDOF 8
