REMARK SMILES Cc1ccnc([C@@H](CO)n2cc([C@@H]([NH2+]Cc3ccc4c(c3)OCO4)C(C)C)nn2)c1
REMARK SMILES IDX 10 1 11 2 12 3 28 4 29 5 7 7 6 8 2 9 3 10 30 11 4 12 5 13
REMARK SMILES IDX 1 14 8 15 9 16 13 18 14 19 15 22 16 23 17 24 21 25 18 26
REMARK SMILES IDX 20 27 19 28 22 29 24 30 23 31 25 32 26 33 27 34
REMARK H PARENT 11 6 9 17 14 20 14 21
ROOT
ATOM     1   N2  UNL     1      -0.055   1.106   2.079  1.00  0.00    -0.201 N   
ATOM     2   C8  UNL     1       0.873   0.149   1.761  1.00  0.00     0.046 A   
ATOM     3   C9  UNL     1       1.590   0.706   0.729  1.00  0.00     0.127 A   
ATOM     4   N4  UNL     1       1.091   1.951   0.450  1.00  0.00    -0.132 NA  
ATOM     5   N5  UNL     1       0.078   2.180   1.269  1.00  0.00    -0.075 NA  
ATOM     6   H10 UNL     1       0.913  -0.805   2.270  1.00  0.00     0.083 HD  
ENDROOT
BRANCH   1   7
ATOM     7   C6  UNL     1      -1.115   1.064   3.080  1.00  0.00     0.174 C   
BRANCH   7   8
ATOM     8   C5  UNL     1      -2.166   0.056   2.655  1.00  0.00     0.065 A   
ATOM     9   C2  UNL     1      -4.285  -0.459   1.628  1.00  0.00    -0.048 A   
ATOM     10  C3  UNL     1      -4.053  -1.803   1.919  1.00  0.00     0.023 A   
ATOM     11  C22 UNL     1      -3.326   0.484   2.008  1.00  0.00     0.029 A   
ATOM     12  C4  UNL     1      -2.872  -2.149   2.551  1.00  0.00     0.111 A   
ATOM     13  N1  UNL     1      -1.922  -1.257   2.913  1.00  0.00    -0.259 NA  
ATOM     14  C1  UNL     1      -5.564  -0.038   0.968  1.00  0.00     0.044 C   
ENDBRANCH   7   8
BRANCH   7  15
ATOM     15  C7  UNL     1      -0.582   0.760   4.490  1.00  0.00     0.187 C   
BRANCH  15  16
ATOM     16  O1  UNL     1       0.223   1.836   4.973  1.00  0.00    -0.394 OA  
ATOM     17  H9  UNL     1       0.428   1.649   5.908  1.00  0.00     0.210 HD  
ENDBRANCH  15  16
ENDBRANCH   7  15
ENDBRANCH   1   7
BRANCH   3  18
ATOM     18  C10 UNL     1       2.710   0.161  -0.094  1.00  0.00     0.117 C   
BRANCH  18  19
ATOM     19  N3  UNL     1       2.663   0.735  -1.491  1.00  0.00     0.249 N   
ATOM     20  H12 UNL     1       2.223   1.666  -1.395  1.00  0.00     0.199 HD  
ATOM     21  H13 UNL     1       3.604   0.903  -1.852  1.00  0.00     0.199 HD  
BRANCH  19  22
ATOM     22  C11 UNL     1       1.887  -0.042  -2.498  1.00  0.00     0.164 C   
BRANCH  22  23
ATOM     23  C12 UNL     1       0.398   0.037  -2.313  1.00  0.00    -0.002 A   
ATOM     24  C13 UNL     1      -0.314  -1.024  -1.706  1.00  0.00     0.012 A   
ATOM     25  C17 UNL     1      -0.295   1.194  -2.712  1.00  0.00     0.045 A   
ATOM     26  C14 UNL     1      -1.695  -0.936  -1.495  1.00  0.00     0.037 A   
ATOM     27  C16 UNL     1      -1.656   1.246  -2.494  1.00  0.00     0.109 A   
ATOM     28  C15 UNL     1      -2.337   0.212  -1.902  1.00  0.00     0.108 A   
ATOM     29  O2  UNL     1      -2.468   2.283  -2.825  1.00  0.00    -0.316 OA  
ATOM     30  O3  UNL     1      -3.666   0.467  -1.787  1.00  0.00    -0.316 OA  
ATOM     31  C18 UNL     1      -3.745   1.784  -2.372  1.00  0.00     0.337 C   
ENDBRANCH  22  23
ENDBRANCH  19  22
ENDBRANCH  18  19
BRANCH  18  32
ATOM     32  C19 UNL     1       4.094   0.424   0.556  1.00  0.00     0.037 C   
ATOM     33  C20 UNL     1       5.201  -0.393  -0.122  1.00  0.00     0.014 C   
ATOM     34  C21 UNL     1       4.495   1.904   0.600  1.00  0.00     0.014 C   
ENDBRANCH  18  32
ENDBRANCH   3  18
TORSDOF 9
