REMARK SMILES Cc1ccnc([C@H](CO)n2cc([C@@H]([NH2+]Cc3ccc4c(c3)OCO4)C(C)C)nn2)c1
REMARK SMILES IDX 10 1 11 2 12 3 28 4 29 5 7 7 6 8 2 9 3 10 30 11 4 12 5 13
REMARK SMILES IDX 1 14 8 15 9 16 13 18 14 19 15 22 16 23 17 24 21 25 18 26
REMARK SMILES IDX 20 27 19 28 22 29 24 30 23 31 25 32 26 33 27 34
REMARK H PARENT 11 6 9 17 14 20 14 21
ROOT
ATOM     1   N2  UNL     1       1.535   0.028  -1.448  1.00  0.00    -0.201 N   
ATOM     2   C8  UNL     1       0.383   0.306  -0.761  1.00  0.00     0.046 A   
ATOM     3   C9  UNL     1       0.489   1.640  -0.449  1.00  0.00     0.127 A   
ATOM     4   N4  UNL     1       1.666   2.128  -0.952  1.00  0.00    -0.132 NA  
ATOM     5   N5  UNL     1       2.293   1.138  -1.566  1.00  0.00    -0.075 NA  
ATOM     6   H10 UNL     1      -0.343  -0.459  -0.519  1.00  0.00     0.083 HD  
ENDROOT
BRANCH   1   7
ATOM     7   C6  UNL     1       2.054  -1.259  -1.899  1.00  0.00     0.174 C   
BRANCH   7   8
ATOM     8   C5  UNL     1       0.966  -2.077  -2.576  1.00  0.00     0.065 A   
ATOM     9   C2  UNL     1      -0.356  -2.602  -4.528  1.00  0.00    -0.048 A   
ATOM     10  C3  UNL     1      -1.047  -3.538  -3.757  1.00  0.00     0.023 A   
ATOM     11  C22 UNL     1       0.656  -1.852  -3.920  1.00  0.00     0.029 A   
ATOM     12  C4  UNL     1      -0.692  -3.696  -2.428  1.00  0.00     0.111 A   
ATOM     13  N1  UNL     1       0.288  -2.986  -1.820  1.00  0.00    -0.259 NA  
ATOM     14  C1  UNL     1      -0.731  -2.367  -5.963  1.00  0.00     0.044 C   
ENDBRANCH   7   8
BRANCH   7  15
ATOM     15  C7  UNL     1       2.746  -1.998  -0.737  1.00  0.00     0.187 C   
BRANCH  15  16
ATOM     16  O1  UNL     1       1.859  -2.280   0.353  1.00  0.00    -0.394 OA  
ATOM     17  H9  UNL     1       1.173  -2.878  -0.018  1.00  0.00     0.210 HD  
ENDBRANCH  15  16
ENDBRANCH   7  15
ENDBRANCH   1   7
BRANCH   3  18
ATOM     18  C10 UNL     1      -0.366   2.501   0.418  1.00  0.00     0.117 C   
BRANCH  18  19
ATOM     19  N3  UNL     1       0.495   3.234   1.428  1.00  0.00     0.249 N   
ATOM     20  H12 UNL     1      -0.061   3.943   1.914  1.00  0.00     0.199 HD  
ATOM     21  H13 UNL     1       1.223   3.722   0.890  1.00  0.00     0.199 HD  
BRANCH  19  22
ATOM     22  C11 UNL     1       1.204   2.382   2.434  1.00  0.00     0.164 C   
BRANCH  22  23
ATOM     23  C12 UNL     1       0.271   1.670   3.372  1.00  0.00    -0.002 A   
ATOM     24  C13 UNL     1      -0.398   2.383   4.396  1.00  0.00     0.012 A   
ATOM     25  C17 UNL     1       0.033   0.292   3.218  1.00  0.00     0.045 A   
ATOM     26  C14 UNL     1      -1.294   1.734   5.254  1.00  0.00     0.037 A   
ATOM     27  C16 UNL     1      -0.861  -0.315   4.076  1.00  0.00     0.109 A   
ATOM     28  C15 UNL     1      -1.506   0.386   5.066  1.00  0.00     0.108 A   
ATOM     29  O2  UNL     1      -1.213  -1.628   4.056  1.00  0.00    -0.316 OA  
ATOM     30  O3  UNL     1      -2.340  -0.400   5.796  1.00  0.00    -0.316 OA  
ATOM     31  C18 UNL     1      -2.135  -1.684   5.167  1.00  0.00     0.337 C   
ENDBRANCH  22  23
ENDBRANCH  19  22
ENDBRANCH  18  19
BRANCH  18  32
ATOM     32  C19 UNL     1      -1.225   3.540  -0.353  1.00  0.00     0.037 C   
ATOM     33  C20 UNL     1      -2.247   2.851  -1.267  1.00  0.00     0.014 C   
ATOM     34  C21 UNL     1      -0.421   4.566  -1.160  1.00  0.00     0.014 C   
ENDBRANCH  18  32
ENDBRANCH   3  18
TORSDOF 9
