REMARK SMILES CCn1cc(CCn2cc([C@@H]([NH2+]Cc3ccc4c(c3)OCO4)C3CCCCC3)nn2)cn1
REMARK SMILES IDX 8 1 9 2 10 3 29 4 30 5 7 7 6 8 5 9 3 10 4 11 32 12 31 13
REMARK SMILES IDX 2 14 1 15 11 16 12 17 13 20 14 21 15 22 19 23 16 24 18 25
REMARK SMILES IDX 17 26 20 27 22 28 21 29 23 30 24 31 28 32 25 33 27 34 26 35
REMARK H PARENT 9 6 12 18 12 19
ROOT
ATOM     1   N2  UNL     1       0.408   3.078  -2.258  1.00  0.00    -0.212 N   
ATOM     2   C7  UNL     1       1.034   2.469  -1.201  1.00  0.00     0.045 A   
ATOM     3   C8  UNL     1       1.159   1.157  -1.607  1.00  0.00     0.127 A   
ATOM     4   N4  UNL     1       0.732   1.047  -2.906  1.00  0.00    -0.132 NA  
ATOM     5   N5  UNL     1       0.295   2.233  -3.300  1.00  0.00    -0.076 NA  
ATOM     6   H11 UNL     1       1.195   2.973  -0.258  1.00  0.00     0.083 HD  
ENDROOT
BRANCH   1   7
ATOM     7   C6  UNL     1      -0.385   4.294  -2.214  1.00  0.00     0.139 C   
BRANCH   7   8
ATOM     8   C5  UNL     1      -1.892   4.005  -2.077  1.00  0.00     0.060 C   
BRANCH   8   9
ATOM     9   C4  UNL     1      -2.181   2.991  -1.014  1.00  0.00    -0.011 A   
ATOM     10  N1  UNL     1      -2.420   1.914   0.883  1.00  0.00    -0.233 N   
ATOM     11  C3  UNL     1      -2.301   3.166   0.346  1.00  0.00     0.101 A   
ATOM     12  N6  UNL     1      -2.260   0.926  -0.032  1.00  0.00    -0.190 NA  
ATOM     13  C24 UNL     1      -2.292   1.592  -1.192  1.00  0.00     0.136 A   
BRANCH  10  14
ATOM     14  C2  UNL     1      -2.641   1.600   2.283  1.00  0.00     0.128 C   
ATOM     15  C1  UNL     1      -1.343   1.539   3.068  1.00  0.00     0.027 C   
ENDBRANCH  10  14
ENDBRANCH   8   9
ENDBRANCH   7   8
ENDBRANCH   1   7
BRANCH   3  16
ATOM     16  C9  UNL     1       1.520  -0.077  -0.834  1.00  0.00     0.117 C   
BRANCH  16  17
ATOM     17  N3  UNL     1       0.294  -0.964  -0.819  1.00  0.00     0.249 N   
ATOM     18  H13 UNL     1       0.278  -1.554  -1.658  1.00  0.00     0.199 HD  
ATOM     19  H14 UNL     1      -0.530  -0.347  -0.939  1.00  0.00     0.199 HD  
BRANCH  17  20
ATOM     20  C10 UNL     1      -0.015  -1.737   0.406  1.00  0.00     0.164 C   
BRANCH  20  21
ATOM     21  C11 UNL     1      -1.020  -2.822   0.132  1.00  0.00    -0.002 A   
ATOM     22  C12 UNL     1      -0.585  -4.108  -0.275  1.00  0.00     0.012 A   
ATOM     23  C16 UNL     1      -2.397  -2.562   0.229  1.00  0.00     0.045 A   
ATOM     24  C13 UNL     1      -1.503  -5.122  -0.565  1.00  0.00     0.037 A   
ATOM     25  C15 UNL     1      -3.276  -3.584  -0.064  1.00  0.00     0.109 A   
ATOM     26  C14 UNL     1      -2.842  -4.828  -0.450  1.00  0.00     0.108 A   
ATOM     27  O1  UNL     1      -4.631  -3.499  -0.010  1.00  0.00    -0.316 OA  
ATOM     28  O2  UNL     1      -3.869  -5.683  -0.689  1.00  0.00    -0.316 OA  
ATOM     29  C17 UNL     1      -5.005  -4.841  -0.397  1.00  0.00     0.337 C   
ENDBRANCH  20  21
ENDBRANCH  17  20
ENDBRANCH  16  17
BRANCH  16  30
ATOM     30  C18 UNL     1       2.740  -0.807  -1.481  1.00  0.00     0.043 C   
ATOM     31  C19 UNL     1       3.163  -2.119  -0.797  1.00  0.00     0.010 C   
ATOM     32  C23 UNL     1       3.990   0.105  -1.559  1.00  0.00     0.010 C   
ATOM     33  C20 UNL     1       3.787  -1.901   0.580  1.00  0.00     0.001 C   
ATOM     34  C22 UNL     1       4.619   0.362  -0.190  1.00  0.00     0.001 C   
ATOM     35  C21 UNL     1       4.973  -0.942   0.517  1.00  0.00     0.000 C   
ENDBRANCH  16  30
ENDBRANCH   3  16
TORSDOF 9
