REMARK SMILES CC(C)C[C@H]([NH2+]Cc1ccc2c(c1)OCO2)c1cn(CCc2ccc(N(C)C)nc2)nn1
REMARK SMILES IDX 17 1 18 2 19 3 31 4 32 5 5 7 4 8 2 9 1 10 3 11 6 12 7 15
REMARK SMILES IDX 8 16 9 17 13 18 10 19 12 20 11 21 14 22 16 23 15 24 20 25
REMARK SMILES IDX 21 26 22 27 23 28 30 29 24 30 29 31 25 32 26 33 27 34 28 35
REMARK H PARENT 18 6 6 13 6 14
ROOT
ATOM     1   C14 UNL     1      -1.694  -2.019  -1.584  1.00  0.00     0.127 A   
ATOM     2   C15 UNL     1      -0.905  -3.057  -2.035  1.00  0.00     0.045 A   
ATOM     3   N2  UNL     1      -1.151  -4.070  -1.147  1.00  0.00    -0.212 N   
ATOM     4   N5  UNL     1      -2.158  -3.743  -0.318  1.00  0.00    -0.076 NA  
ATOM     5   N6  UNL     1      -2.505  -2.492  -0.581  1.00  0.00    -0.132 NA  
ATOM     6   H20 UNL     1      -0.110  -3.117  -2.765  1.00  0.00     0.083 HD  
ENDROOT
BRANCH   1   7
ATOM     7   C5  UNL     1      -1.679  -0.550  -1.902  1.00  0.00     0.114 C   
BRANCH   7   8
ATOM     8   C4  UNL     1      -0.859  -0.203  -3.165  1.00  0.00     0.064 C   
BRANCH   8   9
ATOM     9   C2  UNL     1      -1.346   1.037  -3.950  1.00  0.00    -0.012 C   
ATOM     10  C1  UNL     1      -1.317   2.340  -3.156  1.00  0.00     0.007 C   
ATOM     11  C3  UNL     1      -0.503   1.198  -5.220  1.00  0.00     0.007 C   
ENDBRANCH   8   9
ENDBRANCH   7   8
BRANCH   7  12
ATOM     12  N1  UNL     1      -1.124   0.231  -0.735  1.00  0.00     0.249 N   
ATOM     13  H11 UNL     1      -0.291  -0.265  -0.353  1.00  0.00     0.199 HD  
ATOM     14  H12 UNL     1      -0.730   1.127  -1.029  1.00  0.00     0.199 HD  
BRANCH  12  15
ATOM     15  C6  UNL     1      -2.066   0.448   0.395  1.00  0.00     0.164 C   
BRANCH  15  16
ATOM     16  C7  UNL     1      -1.573   1.524   1.325  1.00  0.00    -0.002 A   
ATOM     17  C8  UNL     1      -0.869   1.183   2.505  1.00  0.00     0.012 A   
ATOM     18  C12 UNL     1      -1.774   2.878   1.005  1.00  0.00     0.045 A   
ATOM     19  C9  UNL     1      -0.377   2.175   3.360  1.00  0.00     0.037 A   
ATOM     20  C11 UNL     1      -1.273   3.831   1.868  1.00  0.00     0.109 A   
ATOM     21  C10 UNL     1      -0.594   3.490   3.012  1.00  0.00     0.108 A   
ATOM     22  O1  UNL     1      -1.383   5.176   1.708  1.00  0.00    -0.316 OA  
ATOM     23  O2  UNL     1      -0.187   4.579   3.716  1.00  0.00    -0.316 OA  
ATOM     24  C13 UNL     1      -0.713   5.648   2.899  1.00  0.00     0.337 C   
ENDBRANCH  15  16
ENDBRANCH  12  15
ENDBRANCH   7  12
ENDBRANCH   1   7
BRANCH   3  25
ATOM     25  C16 UNL     1      -0.253  -5.166  -0.824  1.00  0.00     0.139 C   
BRANCH  25  26
ATOM     26  C17 UNL     1       0.698  -4.835   0.348  1.00  0.00     0.058 C   
BRANCH  26  27
ATOM     27  C18 UNL     1       1.352  -3.483   0.191  1.00  0.00    -0.028 A   
ATOM     28  C19 UNL     1       2.403  -3.268  -0.691  1.00  0.00     0.009 A   
ATOM     29  C24 UNL     1       0.788  -2.360   0.779  1.00  0.00     0.117 A   
ATOM     30  C20 UNL     1       2.793  -1.960  -0.992  1.00  0.00     0.045 A   
ATOM     31  N4  UNL     1       1.105  -1.082   0.446  1.00  0.00    -0.241 NA  
ATOM     32  C21 UNL     1       2.129  -0.873  -0.421  1.00  0.00     0.119 A   
BRANCH  32  33
ATOM     33  N3  UNL     1       2.370   0.460  -0.781  1.00  0.00    -0.322 N   
ATOM     34  C22 UNL     1       2.452   1.331   0.401  1.00  0.00     0.131 C   
ATOM     35  C23 UNL     1       3.423   0.726  -1.767  1.00  0.00     0.131 C   
ENDBRANCH  32  33
ENDBRANCH  26  27
ENDBRANCH  25  26
ENDBRANCH   3  25
TORSDOF 10
