REMARK SMILES CCn1c(-n2cc([C@@H]([NH2+]Cc3ccc4c(c3)OCO4)C(C)(C)C)nn2)nc2ccccc21
REMARK SMILES IDX 5 1 6 2 7 3 24 4 25 5 4 6 3 7 32 8 26 9 27 10 31 11 28 12
REMARK SMILES IDX 30 13 29 14 2 15 1 16 8 17 9 18 10 21 11 22 12 23 16 24
REMARK SMILES IDX 13 25 15 26 14 27 17 28 19 29 18 30 20 31 21 32 22 33 23 34
REMARK H PARENT 9 19 9 20
ROOT
ATOM     1   N2  UNL     1      -0.003   0.399  -0.216  1.00  0.00    -0.149 N   
ATOM     2   C4  UNL     1       0.492   0.298   1.067  1.00  0.00     0.138 A   
ATOM     3   C5  UNL     1       1.697   0.960   1.033  1.00  0.00     0.128 A   
ATOM     4   N4  UNL     1       1.873   1.498  -0.214  1.00  0.00    -0.131 NA  
ATOM     5   N5  UNL     1       0.827   1.167  -0.957  1.00  0.00    -0.068 NA  
ENDROOT
BRANCH   1   6
ATOM     6   C3  UNL     1      -1.139  -0.202  -0.745  1.00  0.00     0.215 A   
ATOM     7   N1  UNL     1      -1.592  -0.162  -2.046  1.00  0.00    -0.270 N   
ATOM     8   C24 UNL     1      -2.769  -0.886  -2.096  1.00  0.00     0.061 A   
ATOM     9   N6  UNL     1      -1.930  -0.935   0.019  1.00  0.00    -0.215 NA  
ATOM     10  C19 UNL     1      -2.948  -1.352  -0.797  1.00  0.00     0.088 A   
ATOM     11  C23 UNL     1      -3.676  -1.174  -3.127  1.00  0.00     0.026 A   
ATOM     12  C20 UNL     1      -4.066  -2.141  -0.489  1.00  0.00     0.030 A   
ATOM     13  C22 UNL     1      -4.787  -1.961  -2.802  1.00  0.00     0.002 A   
ATOM     14  C21 UNL     1      -4.981  -2.439  -1.506  1.00  0.00     0.002 A   
BRANCH   7  15
ATOM     15  C2  UNL     1      -0.980   0.467  -3.204  1.00  0.00     0.111 C   
ATOM     16  C1  UNL     1      -1.395   1.919  -3.364  1.00  0.00     0.025 C   
ENDBRANCH   7  15
ENDBRANCH   1   6
BRANCH   3  17
ATOM     17  C6  UNL     1       2.799   1.037   2.046  1.00  0.00     0.120 C   
BRANCH  17  18
ATOM     18  N3  UNL     1       4.129   0.809   1.342  1.00  0.00     0.250 N   
ATOM     19  H8  UNL     1       4.029   1.224   0.403  1.00  0.00     0.199 HD  
ATOM     20  H9  UNL     1       4.882   1.328   1.798  1.00  0.00     0.199 HD  
BRANCH  18  21
ATOM     21  C7  UNL     1       4.568  -0.614   1.181  1.00  0.00     0.164 C   
BRANCH  21  22
ATOM     22  C8  UNL     1       3.686  -1.423   0.272  1.00  0.00    -0.002 A   
ATOM     23  C9  UNL     1       3.721  -1.217  -1.130  1.00  0.00     0.012 A   
ATOM     24  C13 UNL     1       2.760  -2.333   0.811  1.00  0.00     0.045 A   
ATOM     25  C10 UNL     1       2.823  -1.875  -1.977  1.00  0.00     0.037 A   
ATOM     26  C12 UNL     1       1.878  -2.952  -0.052  1.00  0.00     0.109 A   
ATOM     27  C11 UNL     1       1.902  -2.724  -1.405  1.00  0.00     0.108 A   
ATOM     28  O1  UNL     1       0.888  -3.807   0.313  1.00  0.00    -0.316 OA  
ATOM     29  O2  UNL     1       0.928  -3.403  -2.064  1.00  0.00    -0.316 OA  
ATOM     30  C14 UNL     1       0.266  -4.070  -0.966  1.00  0.00     0.337 C   
ENDBRANCH  21  22
ENDBRANCH  18  21
ENDBRANCH  17  18
BRANCH  17  31
ATOM     31  C15 UNL     1       2.828   2.379   2.858  1.00  0.00     0.010 C   
ATOM     32  C16 UNL     1       3.883   2.299   3.986  1.00  0.00     0.017 C   
ATOM     33  C17 UNL     1       3.144   3.604   1.979  1.00  0.00     0.017 C   
ATOM     34  C18 UNL     1       1.460   2.614   3.541  1.00  0.00     0.017 C   
ENDBRANCH  17  31
ENDBRANCH   3  17
TORSDOF 7
