REMARK SMILES c1cc(Cn2cc([C@@H]([NH2+]Cc3ccc4c(c3)OCO4)C3CCCC3)nn2)c2[nH]ccc2c1
REMARK SMILES IDX 5 1 6 2 7 3 25 4 26 5 4 7 3 8 1 9 2 10 32 11 31 12 27 13
REMARK SMILES IDX 30 14 28 15 29 16 8 18 9 19 10 22 11 23 12 24 16 25 13 26
REMARK SMILES IDX 15 27 14 28 17 29 19 30 18 31 20 32 21 33 24 34 22 35 23 36
REMARK H PARENT 6 6 28 17 9 20 9 21
ROOT
ATOM     1   N1  UNL     1      -2.841  -3.090  -0.206  1.00  0.00    -0.208 N   
ATOM     2   C5  UNL     1      -2.687  -1.747  -0.420  1.00  0.00     0.046 A   
ATOM     3   C6  UNL     1      -1.727  -1.677  -1.405  1.00  0.00     0.127 A   
ATOM     4   N3  UNL     1      -1.383  -2.947  -1.793  1.00  0.00    -0.132 NA  
ATOM     5   N4  UNL     1      -2.068  -3.803  -1.053  1.00  0.00    -0.076 NA  
ATOM     6   H5  UNL     1      -3.192  -1.003   0.181  1.00  0.00     0.083 HD  
ENDROOT
BRANCH   1   7
ATOM     7   C4  UNL     1      -3.518  -3.739   0.905  1.00  0.00     0.171 C   
BRANCH   7   8
ATOM     8   C3  UNL     1      -2.728  -3.529   2.175  1.00  0.00    -0.007 A   
ATOM     9   C1  UNL     1      -2.576  -2.575   4.426  1.00  0.00     0.001 A   
ATOM     10  C2  UNL     1      -3.292  -2.822   3.256  1.00  0.00     0.007 A   
ATOM     11  C25 UNL     1      -1.260  -3.023   4.564  1.00  0.00     0.010 A   
ATOM     12  C24 UNL     1      -0.662  -3.740   3.512  1.00  0.00    -0.003 A   
ATOM     13  C21 UNL     1      -1.404  -3.986   2.356  1.00  0.00     0.042 A   
ATOM     14  C23 UNL     1       0.623  -4.319   3.324  1.00  0.00     0.025 A   
ATOM     15  N5  UNL     1      -0.588  -4.714   1.510  1.00  0.00    -0.320 N   
ATOM     16  C22 UNL     1       0.642  -4.903   2.079  1.00  0.00     0.072 A   
ATOM     17  H25 UNL     1      -0.861  -5.046   0.592  1.00  0.00     0.152 HD  
ENDBRANCH   7   8
ENDBRANCH   1   7
BRANCH   3  18
ATOM     18  C7  UNL     1      -0.996  -0.502  -1.962  1.00  0.00     0.117 C   
BRANCH  18  19
ATOM     19  N2  UNL     1       0.496  -0.772  -1.980  1.00  0.00     0.249 N   
ATOM     20  H7  UNL     1       0.990   0.011  -2.415  1.00  0.00     0.199 HD  
ATOM     21  H8  UNL     1       0.639  -1.597  -2.577  1.00  0.00     0.199 HD  
BRANCH  19  22
ATOM     22  C8  UNL     1       1.141  -1.068  -0.660  1.00  0.00     0.164 C   
BRANCH  22  23
ATOM     23  C9  UNL     1       0.967   0.026   0.355  1.00  0.00    -0.002 A   
ATOM     24  C10 UNL     1       0.208  -0.211   1.527  1.00  0.00     0.012 A   
ATOM     25  C14 UNL     1       1.538   1.294   0.148  1.00  0.00     0.045 A   
ATOM     26  C11 UNL     1       0.005   0.799   2.473  1.00  0.00     0.037 A   
ATOM     27  C13 UNL     1       1.316   2.268   1.099  1.00  0.00     0.109 A   
ATOM     28  C12 UNL     1       0.571   2.030   2.227  1.00  0.00     0.108 A   
ATOM     29  O1  UNL     1       1.783   3.543   1.044  1.00  0.00    -0.316 OA  
ATOM     30  O2  UNL     1       0.476   3.124   3.026  1.00  0.00    -0.316 OA  
ATOM     31  C15 UNL     1       1.272   4.076   2.288  1.00  0.00     0.337 C   
ENDBRANCH  22  23
ENDBRANCH  19  22
ENDBRANCH  18  19
BRANCH  18  32
ATOM     32  C16 UNL     1      -1.445  -0.171  -3.399  1.00  0.00     0.043 C   
ATOM     33  C17 UNL     1      -2.921   0.228  -3.495  1.00  0.00     0.010 C   
ATOM     34  C20 UNL     1      -0.756   1.053  -4.010  1.00  0.00     0.010 C   
ATOM     35  C18 UNL     1      -3.041   0.908  -4.854  1.00  0.00     0.001 C   
ATOM     36  C19 UNL     1      -1.654   1.460  -5.173  1.00  0.00     0.001 C   
ENDBRANCH  18  32
ENDBRANCH   3  18
TORSDOF 7
