REMARK SMILES CC(C)[C@H]([NH2+]Cc1ccc2c(c1)OCO2)c1cn(CC(=O)c2ccc(F)cc2F)nn1
REMARK SMILES IDX 16 1 17 2 18 3 30 4 31 5 4 7 2 8 1 9 3 10 5 11 6 14 7 15
REMARK SMILES IDX 8 16 12 17 9 18 11 19 10 20 13 21 15 22 14 23 19 24 20 25
REMARK SMILES IDX 21 26 22 27 23 28 28 29 24 30 27 31 25 32 29 33 26 34
REMARK H PARENT 17 6 5 12 5 13
ROOT
ATOM     1   C13 UNL     1      -1.209  -0.124  -0.489  1.00  0.00     0.127 A   
ATOM     2   C14 UNL     1      -0.419  -1.246  -0.610  1.00  0.00     0.046 A   
ATOM     3   N2  UNL     1      -1.018  -1.970  -1.604  1.00  0.00    -0.204 N   
ATOM     4   N3  UNL     1      -2.030  -1.269  -2.155  1.00  0.00    -0.076 NA  
ATOM     5   N4  UNL     1      -2.173  -0.149  -1.464  1.00  0.00    -0.132 NA  
ATOM     6   H18 UNL     1       0.441  -1.610  -0.067  1.00  0.00     0.083 HD  
ENDROOT
BRANCH   1   7
ATOM     7   C4  UNL     1      -1.127   1.045   0.440  1.00  0.00     0.117 C   
BRANCH   7   8
ATOM     8   C2  UNL     1      -1.923   0.858   1.758  1.00  0.00     0.037 C   
ATOM     9   C1  UNL     1      -3.429   0.643   1.563  1.00  0.00     0.014 C   
ATOM     10  C3  UNL     1      -1.349  -0.285   2.608  1.00  0.00     0.014 C   
ENDBRANCH   7   8
BRANCH   7  11
ATOM     11  N1  UNL     1      -1.614   2.263  -0.316  1.00  0.00     0.249 N   
ATOM     12  H9  UNL     1      -1.156   2.233  -1.235  1.00  0.00     0.199 HD  
ATOM     13  H10 UNL     1      -2.604   2.114  -0.546  1.00  0.00     0.199 HD  
BRANCH  11  14
ATOM     14  C5  UNL     1      -1.400   3.607   0.275  1.00  0.00     0.164 C   
BRANCH  14  15
ATOM     15  C6  UNL     1       0.051   3.943   0.480  1.00  0.00    -0.002 A   
ATOM     16  C7  UNL     1       0.572   4.095   1.787  1.00  0.00     0.012 A   
ATOM     17  C11 UNL     1       0.910   4.086  -0.625  1.00  0.00     0.045 A   
ATOM     18  C8  UNL     1       1.925   4.376   1.995  1.00  0.00     0.037 A   
ATOM     19  C10 UNL     1       2.239   4.359  -0.385  1.00  0.00     0.109 A   
ATOM     20  C9  UNL     1       2.734   4.500   0.887  1.00  0.00     0.108 A   
ATOM     21  O1  UNL     1       3.196   4.517  -1.336  1.00  0.00    -0.316 OA  
ATOM     22  O2  UNL     1       4.065   4.767   0.897  1.00  0.00    -0.316 OA  
ATOM     23  C12 UNL     1       4.356   4.784  -0.517  1.00  0.00     0.337 C   
ENDBRANCH  14  15
ENDBRANCH  11  14
ENDBRANCH   7  11
ENDBRANCH   1   7
BRANCH   3  24
ATOM     24  C15 UNL     1      -0.629  -3.252  -2.170  1.00  0.00     0.215 C   
BRANCH  24  25
ATOM     25  C16 UNL     1      -0.411  -4.324  -1.125  1.00  0.00     0.185 C   
ATOM     26  O3  UNL     1      -0.608  -4.132   0.075  1.00  0.00    -0.292 OA  
BRANCH  25  27
ATOM     27  C17 UNL     1       0.083  -5.667  -1.554  1.00  0.00     0.055 A   
ATOM     28  C18 UNL     1       0.409  -6.608  -0.563  1.00  0.00     0.018 A   
ATOM     29  C22 UNL     1       0.242  -6.024  -2.897  1.00  0.00     0.136 A   
ATOM     30  C19 UNL     1       0.888  -7.872  -0.920  1.00  0.00     0.040 A   
ATOM     31  C21 UNL     1       0.717  -7.281  -3.260  1.00  0.00     0.079 A   
ATOM     32  C20 UNL     1       1.038  -8.194  -2.265  1.00  0.00     0.126 A   
ATOM     33  F2  UNL     1      -0.057  -5.165  -3.881  1.00  0.00    -0.206 F   
ATOM     34  F1  UNL     1       1.502  -9.401  -2.606  1.00  0.00    -0.207 F   
ENDBRANCH  25  27
ENDBRANCH  24  25
ENDBRANCH   3  24
TORSDOF 8
