REMARK SMILES O[C@@H](Cc1cccc(F)c1)Cn1cc([C@@H]([NH2+]Cc2ccc3c(c2)OCO3)C2CCCC2)nn1
REMARK SMILES IDX 12 1 13 2 14 3 32 4 33 5 11 7 2 8 1 9 3 11 4 12 5 13 10 14
REMARK SMILES IDX 6 15 8 16 7 17 9 18 15 19 16 20 17 23 18 24 19 25 23 26
REMARK SMILES IDX 20 27 22 28 21 29 24 30 26 31 25 32 27 33 28 34 31 35 29 36
REMARK SMILES IDX 30 37
REMARK H PARENT 13 6 1 10 16 21 16 22
ROOT
ATOM     1   N1  UNL     1      -1.896   1.202  -2.221  1.00  0.00    -0.210 N   
ATOM     2   C10 UNL     1      -0.702   1.585  -1.679  1.00  0.00     0.045 A   
ATOM     3   C11 UNL     1       0.122   0.504  -1.897  1.00  0.00     0.127 A   
ATOM     4   N3  UNL     1      -0.583  -0.476  -2.549  1.00  0.00    -0.132 NA  
ATOM     5   N4  UNL     1      -1.817  -0.038  -2.740  1.00  0.00    -0.076 NA  
ATOM     6   H11 UNL     1      -0.567   2.544  -1.198  1.00  0.00     0.083 HD  
ENDROOT
BRANCH   1   7
ATOM     7   C9  UNL     1      -3.134   1.953  -2.288  1.00  0.00     0.166 C   
BRANCH   7   8
ATOM     8   C1  UNL     1      -4.094   1.563  -1.161  1.00  0.00     0.138 C   
BRANCH   8   9
ATOM     9   O1  UNL     1      -3.547   2.037   0.080  1.00  0.00    -0.391 OA  
ATOM     10  H1  UNL     1      -4.181   1.791   0.782  1.00  0.00     0.211 HD  
ENDBRANCH   8   9
BRANCH   8  11
ATOM     11  C2  UNL     1      -5.473   2.202  -1.399  1.00  0.00     0.069 C   
BRANCH  11  12
ATOM     12  C3  UNL     1      -6.519   1.699  -0.429  1.00  0.00    -0.042 A   
ATOM     13  C4  UNL     1      -6.940   2.498   0.645  1.00  0.00     0.004 A   
ATOM     14  C8  UNL     1      -7.076   0.422  -0.584  1.00  0.00     0.043 A   
ATOM     15  C5  UNL     1      -7.900   2.028   1.547  1.00  0.00     0.003 A   
ATOM     16  C7  UNL     1      -8.030  -0.034   0.321  1.00  0.00     0.123 A   
ATOM     17  C6  UNL     1      -8.446   0.756   1.385  1.00  0.00     0.039 A   
ATOM     18  F1  UNL     1      -8.552  -1.258   0.163  1.00  0.00    -0.207 F   
ENDBRANCH  11  12
ENDBRANCH   8  11
ENDBRANCH   7   8
ENDBRANCH   1   7
BRANCH   3  19
ATOM     19  C12 UNL     1       1.544   0.257  -1.513  1.00  0.00     0.117 C   
BRANCH  19  20
ATOM     20  N2  UNL     1       1.770  -1.223  -1.306  1.00  0.00     0.249 N   
ATOM     21  H13 UNL     1       2.757  -1.468  -1.409  1.00  0.00     0.199 HD  
ATOM     22  H14 UNL     1       1.263  -1.697  -2.068  1.00  0.00     0.199 HD  
BRANCH  20  23
ATOM     23  C13 UNL     1       1.250  -1.788  -0.026  1.00  0.00     0.164 C   
BRANCH  23  24
ATOM     24  C14 UNL     1       2.018  -1.312   1.175  1.00  0.00    -0.002 A   
ATOM     25  C15 UNL     1       1.414  -0.430   2.104  1.00  0.00     0.012 A   
ATOM     26  C19 UNL     1       3.350  -1.716   1.373  1.00  0.00     0.045 A   
ATOM     27  C16 UNL     1       2.126   0.051   3.208  1.00  0.00     0.037 A   
ATOM     28  C18 UNL     1       4.024  -1.221   2.471  1.00  0.00     0.109 A   
ATOM     29  C17 UNL     1       3.430  -0.362   3.361  1.00  0.00     0.108 A   
ATOM     30  O2  UNL     1       5.312  -1.502   2.799  1.00  0.00    -0.316 OA  
ATOM     31  O3  UNL     1       4.269   0.005   4.365  1.00  0.00    -0.316 OA  
ATOM     32  C20 UNL     1       5.455  -0.745   4.023  1.00  0.00     0.337 C   
ENDBRANCH  23  24
ENDBRANCH  20  23
ENDBRANCH  19  20
BRANCH  19  33
ATOM     33  C21 UNL     1       2.528   0.813  -2.563  1.00  0.00     0.043 C   
ATOM     34  C22 UNL     1       3.991   0.838  -2.099  1.00  0.00     0.010 C   
ATOM     35  C25 UNL     1       2.552   0.099  -3.928  1.00  0.00     0.010 C   
ATOM     36  C23 UNL     1       4.771   0.913  -3.401  1.00  0.00     0.001 C   
ATOM     37  C24 UNL     1       4.026  -0.060  -4.301  1.00  0.00     0.001 C   
ENDBRANCH  19  33
ENDBRANCH   3  19
TORSDOF 10
