REMARK SMILES O[C@H](Cc1cccc(F)c1)Cn1cc([C@@H]([NH2+]Cc2ccc3c(c2)OCO3)C2CCCC2)nn1
REMARK SMILES IDX 12 1 13 2 14 3 32 4 33 5 11 7 2 8 1 9 3 11 4 12 5 13 10 14
REMARK SMILES IDX 6 15 8 16 7 17 9 18 15 19 16 20 17 23 18 24 19 25 23 26
REMARK SMILES IDX 20 27 22 28 21 29 24 30 26 31 25 32 27 33 28 34 31 35 29 36
REMARK SMILES IDX 30 37
REMARK H PARENT 13 6 1 10 16 21 16 22
ROOT
ATOM     1   N1  UNL     1       3.031   0.073  -1.185  1.00  0.00    -0.210 N   
ATOM     2   C10 UNL     1       2.750  -0.929  -0.300  1.00  0.00     0.045 A   
ATOM     3   C11 UNL     1       1.402  -1.151  -0.467  1.00  0.00     0.127 A   
ATOM     4   N3  UNL     1       0.933  -0.335  -1.465  1.00  0.00    -0.132 NA  
ATOM     5   N4  UNL     1       1.948   0.380  -1.923  1.00  0.00    -0.076 NA  
ATOM     6   H11 UNL     1       3.496  -1.326   0.375  1.00  0.00     0.083 HD  
ENDROOT
BRANCH   1   7
ATOM     7   C9  UNL     1       4.293   0.742  -1.410  1.00  0.00     0.166 C   
BRANCH   7   8
ATOM     8   C1  UNL     1       4.785   1.638  -0.261  1.00  0.00     0.138 C   
BRANCH   8   9
ATOM     9   O1  UNL     1       4.965   0.881   0.942  1.00  0.00    -0.391 OA  
ATOM     10  H1  UNL     1       5.503   1.423   1.551  1.00  0.00     0.211 HD  
ENDBRANCH   8   9
BRANCH   8  11
ATOM     11  C2  UNL     1       3.984   2.932  -0.006  1.00  0.00     0.069 C   
BRANCH  11  12
ATOM     12  C3  UNL     1       2.516   2.814   0.340  1.00  0.00    -0.042 A   
ATOM     13  C4  UNL     1       1.566   3.529  -0.410  1.00  0.00     0.004 A   
ATOM     14  C8  UNL     1       2.068   2.040   1.418  1.00  0.00     0.043 A   
ATOM     15  C5  UNL     1       0.204   3.451  -0.109  1.00  0.00     0.003 A   
ATOM     16  C7  UNL     1       0.706   1.952   1.693  1.00  0.00     0.123 A   
ATOM     17  C6  UNL     1      -0.231   2.656   0.946  1.00  0.00     0.039 A   
ATOM     18  F1  UNL     1       0.282   1.119   2.655  1.00  0.00    -0.207 F   
ENDBRANCH  11  12
ENDBRANCH   8  11
ENDBRANCH   7   8
ENDBRANCH   1   7
BRANCH   3  19
ATOM     19  C12 UNL     1       0.449  -2.005   0.305  1.00  0.00     0.117 C   
BRANCH  19  20
ATOM     20  N2  UNL     1      -0.809  -1.209   0.513  1.00  0.00     0.249 N   
ATOM     21  H13 UNL     1      -0.514  -0.269   0.814  1.00  0.00     0.199 HD  
ATOM     22  H14 UNL     1      -1.241  -1.032  -0.405  1.00  0.00     0.199 HD  
BRANCH  20  23
ATOM     23  C13 UNL     1      -1.800  -1.702   1.494  1.00  0.00     0.164 C   
BRANCH  23  24
ATOM     24  C14 UNL     1      -2.896  -0.690   1.681  1.00  0.00    -0.002 A   
ATOM     25  C15 UNL     1      -2.851   0.222   2.762  1.00  0.00     0.012 A   
ATOM     26  C19 UNL     1      -3.942  -0.605   0.747  1.00  0.00     0.045 A   
ATOM     27  C16 UNL     1      -3.836   1.205   2.915  1.00  0.00     0.037 A   
ATOM     28  C18 UNL     1      -4.896   0.376   0.926  1.00  0.00     0.109 A   
ATOM     29  C17 UNL     1      -4.845   1.257   1.979  1.00  0.00     0.108 A   
ATOM     30  O2  UNL     1      -5.965   0.596   0.116  1.00  0.00    -0.316 OA  
ATOM     31  O3  UNL     1      -5.875   2.143   1.964  1.00  0.00    -0.316 OA  
ATOM     32  C20 UNL     1      -6.601   1.703   0.795  1.00  0.00     0.337 C   
ENDBRANCH  23  24
ENDBRANCH  20  23
ENDBRANCH  19  20
BRANCH  19  33
ATOM     33  C21 UNL     1       0.127  -3.362  -0.345  1.00  0.00     0.043 C   
ATOM     34  C22 UNL     1       1.348  -4.241  -0.628  1.00  0.00     0.010 C   
ATOM     35  C25 UNL     1      -0.587  -3.329  -1.702  1.00  0.00     0.010 C   
ATOM     36  C23 UNL     1       0.767  -5.359  -1.481  1.00  0.00     0.001 C   
ATOM     37  C24 UNL     1      -0.294  -4.686  -2.348  1.00  0.00     0.001 C   
ENDBRANCH  19  33
ENDBRANCH   3  19
TORSDOF 10
