REMARK SMILES CCn1ccc(CCn2cc([C@@H]([NH2+]Cc3ccc4c(c3)OCO4)C3CCCCC3)nn2)n1
REMARK SMILES IDX 9 1 10 2 11 3 30 4 31 5 8 7 7 8 6 9 3 10 4 11 32 12 5 13
REMARK SMILES IDX 2 14 1 15 12 16 13 17 14 20 15 21 16 22 20 23 17 24 19 25
REMARK SMILES IDX 18 26 21 27 23 28 22 29 24 30 25 31 29 32 26 33 28 34 27 35
REMARK H PARENT 10 6 13 18 13 19
ROOT
ATOM     1   N2  UNL     1      -0.867   1.577   1.994  1.00  0.00    -0.212 N   
ATOM     2   C8  UNL     1      -1.089   1.431   0.654  1.00  0.00     0.045 A   
ATOM     3   C9  UNL     1       0.110   0.961   0.169  1.00  0.00     0.127 A   
ATOM     4   N4  UNL     1       1.025   0.927   1.191  1.00  0.00    -0.132 NA  
ATOM     5   N5  UNL     1       0.422   1.330   2.297  1.00  0.00    -0.076 NA  
ATOM     6   H12 UNL     1      -2.058   1.610   0.209  1.00  0.00     0.083 HD  
ENDROOT
BRANCH   1   7
ATOM     7   C7  UNL     1      -1.790   2.013   3.021  1.00  0.00     0.140 C   
BRANCH   7   8
ATOM     8   C6  UNL     1      -2.389   0.854   3.810  1.00  0.00     0.079 C   
BRANCH   8   9
ATOM     9   C5  UNL     1      -3.564   0.225   3.135  1.00  0.00     0.062 A   
ATOM     10  N1  UNL     1      -4.668  -0.878   1.703  1.00  0.00    -0.233 N   
ATOM     11  C3  UNL     1      -5.584  -0.536   2.652  1.00  0.00     0.097 A   
ATOM     12  N6  UNL     1      -3.433  -0.394   1.954  1.00  0.00    -0.187 NA  
ATOM     13  C4  UNL     1      -4.897   0.177   3.604  1.00  0.00     0.042 A   
BRANCH  10  14
ATOM     14  C2  UNL     1      -4.909  -1.673   0.515  1.00  0.00     0.128 C   
ATOM     15  C1  UNL     1      -4.524  -3.127   0.715  1.00  0.00     0.027 C   
ENDBRANCH  10  14
ENDBRANCH   8   9
ENDBRANCH   7   8
ENDBRANCH   1   7
BRANCH   3  16
ATOM     16  C10 UNL     1       0.531   0.564  -1.207  1.00  0.00     0.117 C   
BRANCH  16  17
ATOM     17  N3  UNL     1       2.008   0.821  -1.382  1.00  0.00     0.249 N   
ATOM     18  H14 UNL     1       2.394   0.281  -2.162  1.00  0.00     0.199 HD  
ATOM     19  H15 UNL     1       2.468   0.471  -0.528  1.00  0.00     0.199 HD  
BRANCH  17  20
ATOM     20  C11 UNL     1       2.397   2.251  -1.527  1.00  0.00     0.164 C   
BRANCH  20  21
ATOM     21  C12 UNL     1       3.882   2.371  -1.715  1.00  0.00    -0.002 A   
ATOM     22  C13 UNL     1       4.437   2.445  -3.015  1.00  0.00     0.012 A   
ATOM     23  C17 UNL     1       4.735   2.350  -0.597  1.00  0.00     0.045 A   
ATOM     24  C14 UNL     1       5.822   2.505  -3.203  1.00  0.00     0.037 A   
ATOM     25  C16 UNL     1       6.095   2.409  -0.818  1.00  0.00     0.109 A   
ATOM     26  C15 UNL     1       6.624   2.484  -2.083  1.00  0.00     0.108 A   
ATOM     27  O1  UNL     1       7.053   2.395   0.145  1.00  0.00    -0.316 OA  
ATOM     28  O2  UNL     1       7.981   2.529  -2.077  1.00  0.00    -0.316 OA  
ATOM     29  C18 UNL     1       8.252   2.481  -0.659  1.00  0.00     0.337 C   
ENDBRANCH  20  21
ENDBRANCH  17  20
ENDBRANCH  16  17
BRANCH  16  30
ATOM     30  C19 UNL     1       0.253  -0.922  -1.561  1.00  0.00     0.043 C   
ATOM     31  C20 UNL     1       0.958  -1.935  -0.636  1.00  0.00     0.010 C   
ATOM     32  C24 UNL     1      -1.257  -1.222  -1.627  1.00  0.00     0.010 C   
ATOM     33  C21 UNL     1       0.677  -3.375  -1.063  1.00  0.00     0.001 C   
ATOM     34  C23 UNL     1      -1.529  -2.664  -2.053  1.00  0.00     0.001 C   
ATOM     35  C22 UNL     1      -0.819  -3.659  -1.141  1.00  0.00     0.000 C   
ENDBRANCH  16  30
ENDBRANCH   3  16
TORSDOF 9
