REMARK SMILES CC(C)Cc1n[nH]cc1Cn1cc([C@@H]([NH2+]Cc2ccc3c(c2)OCO3)C(C)(C)C)nn1
REMARK SMILES IDX 11 1 12 2 13 3 30 4 31 5 10 7 9 8 5 9 6 10 7 11 8 12 4 14
REMARK SMILES IDX 2 15 1 16 3 17 14 18 15 19 16 22 17 23 18 24 22 25 19 26
REMARK SMILES IDX 21 27 20 28 23 29 25 30 24 31 26 32 27 33 28 34 29 35
REMARK H PARENT 12 6 7 13 15 20 15 21
ROOT
ATOM     1   N3  UNL     1      -1.632  -1.341   1.018  1.00  0.00    -0.208 N   
ATOM     2   C9  UNL     1      -1.525  -1.035  -0.312  1.00  0.00     0.046 A   
ATOM     3   C10 UNL     1      -0.464  -1.797  -0.746  1.00  0.00     0.127 A   
ATOM     4   N5  UNL     1      -0.010  -2.567   0.292  1.00  0.00    -0.132 NA  
ATOM     5   N6  UNL     1      -0.736  -2.286   1.361  1.00  0.00    -0.076 NA  
ATOM     6   H14 UNL     1      -2.134  -0.277  -0.781  1.00  0.00     0.083 HD  
ENDROOT
BRANCH   1   7
ATOM     7   C8  UNL     1      -2.444  -0.676   2.027  1.00  0.00     0.172 C   
BRANCH   7   8
ATOM     8   C7  UNL     1      -2.006   0.744   2.157  1.00  0.00     0.010 A   
ATOM     9   C5  UNL     1      -0.846   1.256   2.811  1.00  0.00     0.065 A   
ATOM     10  N1  UNL     1      -0.714   2.572   2.604  1.00  0.00    -0.189 NA  
ATOM     11  N2  UNL     1      -1.825   2.927   1.948  1.00  0.00    -0.245 N   
ATOM     12  C6  UNL     1      -2.623   1.865   1.636  1.00  0.00     0.099 A   
ATOM     13  H10 UNL     1      -1.964   3.910   1.732  1.00  0.00     0.175 HD  
BRANCH   9  14
ATOM     14  C4  UNL     1       0.201   0.526   3.596  1.00  0.00     0.061 C   
BRANCH  14  15
ATOM     15  C2  UNL     1       0.049   0.592   5.129  1.00  0.00    -0.011 C   
ATOM     16  C1  UNL     1      -1.244  -0.057   5.622  1.00  0.00     0.008 C   
ATOM     17  C3  UNL     1       0.178   2.012   5.681  1.00  0.00     0.008 C   
ENDBRANCH  14  15
ENDBRANCH   9  14
ENDBRANCH   7   8
ENDBRANCH   1   7
BRANCH   3  18
ATOM     18  C11 UNL     1       0.281  -1.776  -2.044  1.00  0.00     0.120 C   
BRANCH  18  19
ATOM     19  N4  UNL     1       1.773  -1.727  -1.763  1.00  0.00     0.250 N   
ATOM     20  H16 UNL     1       1.987  -2.545  -1.177  1.00  0.00     0.199 HD  
ATOM     21  H17 UNL     1       2.308  -1.818  -2.628  1.00  0.00     0.199 HD  
BRANCH  19  22
ATOM     22  C12 UNL     1       2.275  -0.526  -1.018  1.00  0.00     0.164 C   
BRANCH  22  23
ATOM     23  C13 UNL     1       2.016   0.772  -1.733  1.00  0.00    -0.002 A   
ATOM     24  C14 UNL     1       2.719   1.091  -2.919  1.00  0.00     0.012 A   
ATOM     25  C18 UNL     1       1.047   1.665  -1.239  1.00  0.00     0.045 A   
ATOM     26  C15 UNL     1       2.455   2.277  -3.611  1.00  0.00     0.037 A   
ATOM     27  C17 UNL     1       0.807   2.823  -1.949  1.00  0.00     0.109 A   
ATOM     28  C16 UNL     1       1.492   3.120  -3.101  1.00  0.00     0.108 A   
ATOM     29  O1  UNL     1      -0.101   3.781  -1.624  1.00  0.00    -0.316 OA  
ATOM     30  O2  UNL     1       1.108   4.306  -3.640  1.00  0.00    -0.316 OA  
ATOM     31  C19 UNL     1       0.143   4.752  -2.666  1.00  0.00     0.337 C   
ENDBRANCH  22  23
ENDBRANCH  19  22
ENDBRANCH  18  19
BRANCH  18  32
ATOM     32  C20 UNL     1      -0.061  -2.969  -3.005  1.00  0.00     0.010 C   
ATOM     33  C21 UNL     1       0.339  -4.343  -2.432  1.00  0.00     0.017 C   
ATOM     34  C22 UNL     1      -1.580  -2.986  -3.293  1.00  0.00     0.017 C   
ATOM     35  C23 UNL     1       0.654  -2.787  -4.364  1.00  0.00     0.017 C   
ENDBRANCH  18  32
ENDBRANCH   3  18
TORSDOF 9
