REMARK SMILES Cc1ccc(F)cc1CCn1cc([C@@H]([NH2+]Cc2ccc3c(c2)OCO3)C(C)C)nn1
REMARK SMILES IDX 11 1 12 2 13 3 29 4 30 5 10 7 9 8 8 9 2 10 3 11 4 12 7 13
REMARK SMILES IDX 5 14 1 15 6 16 14 17 15 18 16 21 17 22 18 23 22 24 19 25
REMARK SMILES IDX 21 26 20 27 23 28 25 29 24 30 26 31 27 32 28 33
REMARK H PARENT 12 6 15 19 15 20
ROOT
ATOM     1   N1  UNL     1      -3.402  -0.276  -0.204  1.00  0.00    -0.212 N   
ATOM     2   C10 UNL     1      -2.872   0.864   0.335  1.00  0.00     0.045 A   
ATOM     3   C11 UNL     1      -1.718   1.069  -0.390  1.00  0.00     0.127 A   
ATOM     4   N3  UNL     1      -1.607   0.087  -1.343  1.00  0.00    -0.132 NA  
ATOM     5   N4  UNL     1      -2.643  -0.726  -1.220  1.00  0.00    -0.076 NA  
ATOM     6   H11 UNL     1      -3.319   1.366   1.182  1.00  0.00     0.083 HD  
ENDROOT
BRANCH   1   7
ATOM     7   C9  UNL     1      -4.531  -1.046   0.276  1.00  0.00     0.139 C   
BRANCH   7   8
ATOM     8   C8  UNL     1      -4.115  -2.298   1.059  1.00  0.00     0.057 C   
BRANCH   8   9
ATOM     9   C7  UNL     1      -3.261  -1.983   2.273  1.00  0.00    -0.041 A   
ATOM     10  C2  UNL     1      -3.810  -1.647   3.529  1.00  0.00    -0.048 A   
ATOM     11  C3  UNL     1      -2.947  -1.292   4.583  1.00  0.00     0.007 A   
ATOM     12  C4  UNL     1      -1.564  -1.255   4.398  1.00  0.00     0.039 A   
ATOM     13  C6  UNL     1      -1.863  -1.970   2.113  1.00  0.00     0.043 A   
ATOM     14  C5  UNL     1      -1.036  -1.592   3.162  1.00  0.00     0.123 A   
ATOM     15  C1  UNL     1      -5.293  -1.679   3.787  1.00  0.00     0.044 C   
ATOM     16  F1  UNL     1       0.287  -1.514   2.958  1.00  0.00    -0.207 F   
ENDBRANCH   8   9
ENDBRANCH   7   8
ENDBRANCH   1   7
BRANCH   3  17
ATOM     17  C12 UNL     1      -0.620   2.068  -0.225  1.00  0.00     0.117 C   
BRANCH  17  18
ATOM     18  N2  UNL     1       0.712   1.431  -0.536  1.00  0.00     0.249 N   
ATOM     19  H13 UNL     1       0.604   0.925  -1.427  1.00  0.00     0.199 HD  
ATOM     20  H14 UNL     1       1.438   2.139  -0.687  1.00  0.00     0.199 HD  
BRANCH  18  21
ATOM     21  C13 UNL     1       1.199   0.441   0.468  1.00  0.00     0.164 C   
BRANCH  21  22
ATOM     22  C14 UNL     1       2.551  -0.081   0.069  1.00  0.00    -0.002 A   
ATOM     23  C15 UNL     1       3.728   0.484   0.614  1.00  0.00     0.012 A   
ATOM     24  C19 UNL     1       2.652  -1.101  -0.894  1.00  0.00     0.045 A   
ATOM     25  C16 UNL     1       4.992   0.036   0.212  1.00  0.00     0.037 A   
ATOM     26  C18 UNL     1       3.913  -1.518  -1.268  1.00  0.00     0.109 A   
ATOM     27  C17 UNL     1       5.049  -0.966  -0.732  1.00  0.00     0.108 A   
ATOM     28  O1  UNL     1       4.186  -2.484  -2.183  1.00  0.00    -0.316 OA  
ATOM     29  O2  UNL     1       6.182  -1.515  -1.241  1.00  0.00    -0.316 OA  
ATOM     30  C20 UNL     1       5.631  -2.498  -2.143  1.00  0.00     0.337 C   
ENDBRANCH  21  22
ENDBRANCH  18  21
ENDBRANCH  17  18
BRANCH  17  31
ATOM     31  C21 UNL     1      -0.776   3.336  -1.103  1.00  0.00     0.037 C   
ATOM     32  C22 UNL     1      -0.812   3.061  -2.611  1.00  0.00     0.014 C   
ATOM     33  C23 UNL     1      -2.008   4.154  -0.697  1.00  0.00     0.014 C   
ENDBRANCH  17  31
ENDBRANCH   3  17
TORSDOF 8
