REMARK SMILES CCn1cnc(Cl)c1CCn1cc([C@H](CC(C)C)[NH2+]Cc2ccc3c(c2)OCO3)nn1
REMARK SMILES IDX 11 1 12 2 13 3 30 4 31 5 10 7 9 8 8 9 3 10 4 11 5 12 6 13
REMARK SMILES IDX 7 14 2 15 1 16 14 17 15 18 16 19 17 20 18 21 19 22 20 25
REMARK SMILES IDX 21 26 22 27 26 28 23 29 25 30 24 31 27 32 29 33 28 34
REMARK H PARENT 12 6 19 23 19 24
ROOT
ATOM     1   N3  UNL     1       1.827   1.856   1.226  1.00  0.00    -0.212 N   
ATOM     2   C8  UNL     1       2.206   0.600   0.832  1.00  0.00     0.045 A   
ATOM     3   C9  UNL     1       1.560   0.432  -0.373  1.00  0.00     0.127 A   
ATOM     4   N5  UNL     1       0.969   1.614  -0.738  1.00  0.00    -0.132 NA  
ATOM     5   N6  UNL     1       1.186   2.495   0.228  1.00  0.00    -0.076 NA  
ATOM     6   H11 UNL     1       2.744  -0.078   1.483  1.00  0.00     0.083 HD  
ENDROOT
BRANCH   1   7
ATOM     7   C7  UNL     1       1.718   2.324   2.597  1.00  0.00     0.140 C   
BRANCH   7   8
ATOM     8   C6  UNL     1       0.258   2.537   3.062  1.00  0.00     0.076 C   
BRANCH   8   9
ATOM     9   C5  UNL     1      -0.715   1.515   2.532  1.00  0.00     0.050 A   
ATOM     10  N1  UNL     1      -1.888   1.815   1.866  1.00  0.00    -0.293 N   
ATOM     11  C3  UNL     1      -2.378   0.644   1.350  1.00  0.00     0.190 A   
ATOM     12  N2  UNL     1      -1.616  -0.385   1.661  1.00  0.00    -0.227 NA  
ATOM     13  C4  UNL     1      -0.682   0.128   2.536  1.00  0.00     0.147 A   
ATOM     14  CL1 UNL     1       0.396  -0.894   3.358  1.00  0.00    -0.061 Cl  
BRANCH  10  15
ATOM     15  C2  UNL     1      -2.533   3.109   1.730  1.00  0.00     0.108 C   
ATOM     16  C1  UNL     1      -2.337   3.720   0.355  1.00  0.00     0.025 C   
ENDBRANCH  10  15
ENDBRANCH   8   9
ENDBRANCH   7   8
ENDBRANCH   1   7
BRANCH   3  17
ATOM     17  C10 UNL     1       1.321  -0.816  -1.154  1.00  0.00     0.114 C   
BRANCH  17  18
ATOM     18  C11 UNL     1       1.591  -0.645  -2.666  1.00  0.00     0.064 C   
BRANCH  18  19
ATOM     19  C12 UNL     1       3.069  -0.568  -3.120  1.00  0.00    -0.012 C   
ATOM     20  C13 UNL     1       3.863   0.584  -2.506  1.00  0.00     0.007 C   
ATOM     21  C14 UNL     1       3.807  -1.887  -2.920  1.00  0.00     0.007 C   
ENDBRANCH  18  19
ENDBRANCH  17  18
BRANCH  17  22
ATOM     22  N4  UNL     1      -0.136  -1.193  -0.955  1.00  0.00     0.249 N   
ATOM     23  H22 UNL     1      -0.414  -0.978   0.026  1.00  0.00     0.199 HD  
ATOM     24  H23 UNL     1      -0.703  -0.536  -1.507  1.00  0.00     0.199 HD  
BRANCH  22  25
ATOM     25  C15 UNL     1      -0.536  -2.599  -1.220  1.00  0.00     0.164 C   
BRANCH  25  26
ATOM     26  C16 UNL     1      -0.052  -3.558  -0.169  1.00  0.00    -0.002 A   
ATOM     27  C17 UNL     1      -0.771  -3.704   1.041  1.00  0.00     0.012 A   
ATOM     28  C21 UNL     1       1.118  -4.317  -0.373  1.00  0.00     0.045 A   
ATOM     29  C18 UNL     1      -0.335  -4.587   2.037  1.00  0.00     0.037 A   
ATOM     30  C20 UNL     1       1.528  -5.162   0.638  1.00  0.00     0.109 A   
ATOM     31  C19 UNL     1       0.822  -5.298   1.806  1.00  0.00     0.108 A   
ATOM     32  O1  UNL     1       2.642  -5.941   0.612  1.00  0.00    -0.316 OA  
ATOM     33  O2  UNL     1       1.392  -6.189   2.659  1.00  0.00    -0.316 OA  
ATOM     34  C22 UNL     1       2.566  -6.570   1.913  1.00  0.00     0.337 C   
ENDBRANCH  25  26
ENDBRANCH  22  25
ENDBRANCH  17  22
ENDBRANCH   3  17
TORSDOF 10
