REMARK SMILES CCOc1ccc(Cn2cc([C@@H]([NH2+]Cc3ccc4c(c3)OCO4)C3CCCCC3)nn2)cc1
REMARK SMILES IDX 9 1 10 2 11 3 30 4 31 5 8 7 7 8 4 9 5 10 33 11 6 12 32 13
REMARK SMILES IDX 3 14 2 15 1 16 12 17 13 18 14 21 15 22 16 23 20 24 17 25
REMARK SMILES IDX 19 26 18 27 21 28 23 29 22 30 24 31 25 32 29 33 26 34 28 35
REMARK SMILES IDX 27 36
REMARK H PARENT 10 6 13 19 13 20
ROOT
ATOM     1   N1  UNL     1       1.815   0.777   0.100  1.00  0.00    -0.208 N   
ATOM     2   C8  UNL     1       0.790   1.400   0.759  1.00  0.00     0.046 A   
ATOM     3   C9  UNL     1       0.015   0.362   1.226  1.00  0.00     0.127 A   
ATOM     4   N3  UNL     1       0.583  -0.828   0.848  1.00  0.00    -0.132 NA  
ATOM     5   N4  UNL     1       1.682  -0.562   0.163  1.00  0.00    -0.076 NA  
ATOM     6   H10 UNL     1       0.705   2.477   0.807  1.00  0.00     0.083 HD  
ENDROOT
BRANCH   1   7
ATOM     7   C7  UNL     1       2.920   1.382  -0.627  1.00  0.00     0.169 C   
BRANCH   7   8
ATOM     8   C6  UNL     1       2.455   1.929  -1.954  1.00  0.00    -0.028 A   
ATOM     9   C3  UNL     1       1.557   2.945  -4.427  1.00  0.00     0.075 A   
ATOM     10  C4  UNL     1       1.917   3.814  -3.399  1.00  0.00     0.034 A   
ATOM     11  C26 UNL     1       1.651   1.568  -4.215  1.00  0.00     0.034 A   
ATOM     12  C5  UNL     1       2.363   3.311  -2.170  1.00  0.00     0.008 A   
ATOM     13  C25 UNL     1       2.098   1.060  -2.994  1.00  0.00     0.008 A   
BRANCH   9  14
ATOM     14  O1  UNL     1       1.108   3.292  -5.669  1.00  0.00    -0.346 OA  
BRANCH  14  15
ATOM     15  C2  UNL     1       1.014   4.673  -6.019  1.00  0.00     0.164 C   
ATOM     16  C1  UNL     1       2.350   5.202  -6.516  1.00  0.00     0.035 C   
ENDBRANCH  14  15
ENDBRANCH   9  14
ENDBRANCH   7   8
ENDBRANCH   1   7
BRANCH   3  17
ATOM     17  C10 UNL     1      -1.292   0.348   1.951  1.00  0.00     0.117 C   
BRANCH  17  18
ATOM     18  N2  UNL     1      -2.113  -0.831   1.489  1.00  0.00     0.249 N   
ATOM     19  H12 UNL     1      -1.480  -1.645   1.475  1.00  0.00     0.199 HD  
ATOM     20  H13 UNL     1      -2.860  -1.057   2.154  1.00  0.00     0.199 HD  
BRANCH  18  21
ATOM     21  C11 UNL     1      -2.692  -0.709   0.122  1.00  0.00     0.164 C   
BRANCH  21  22
ATOM     22  C12 UNL     1      -3.395  -1.980  -0.262  1.00  0.00    -0.002 A   
ATOM     23  C13 UNL     1      -2.660  -3.055  -0.818  1.00  0.00     0.012 A   
ATOM     24  C17 UNL     1      -4.771  -2.131  -0.022  1.00  0.00     0.045 A   
ATOM     25  C14 UNL     1      -3.288  -4.262  -1.143  1.00  0.00     0.037 A   
ATOM     26  C16 UNL     1      -5.359  -3.334  -0.354  1.00  0.00     0.109 A   
ATOM     27  C15 UNL     1      -4.639  -4.370  -0.898  1.00  0.00     0.108 A   
ATOM     28  O2  UNL     1      -6.671  -3.644  -0.189  1.00  0.00    -0.316 OA  
ATOM     29  O3  UNL     1      -5.409  -5.461  -1.147  1.00  0.00    -0.316 OA  
ATOM     30  C18 UNL     1      -6.705  -4.989  -0.720  1.00  0.00     0.337 C   
ENDBRANCH  21  22
ENDBRANCH  18  21
ENDBRANCH  17  18
BRANCH  17  31
ATOM     31  C19 UNL     1      -1.169   0.285   3.496  1.00  0.00     0.043 C   
ATOM     32  C20 UNL     1      -0.430  -0.961   4.024  1.00  0.00     0.010 C   
ATOM     33  C24 UNL     1      -0.527   1.564   4.068  1.00  0.00     0.010 C   
ATOM     34  C21 UNL     1      -0.379  -0.980   5.551  1.00  0.00     0.001 C   
ATOM     35  C23 UNL     1      -0.481   1.539   5.595  1.00  0.00     0.001 C   
ATOM     36  C22 UNL     1       0.237   0.297   6.113  1.00  0.00     0.000 C   
ENDBRANCH  17  31
ENDBRANCH   3  17
TORSDOF 9
