REMARK SMILES OC[C@H](c1cccnc1)n1cc([C@@H]([NH2+]Cc2ccc3c(c2)OCO3)C2CCCC2)nn1
REMARK SMILES IDX 10 1 11 2 12 3 30 4 31 5 3 7 2 8 1 9 4 11 5 12 9 13 6 14
REMARK SMILES IDX 8 15 7 16 13 17 14 18 15 21 16 22 17 23 21 24 18 25 20 26
REMARK SMILES IDX 19 27 22 28 24 29 23 30 25 31 26 32 29 33 27 34 28 35
REMARK H PARENT 11 6 1 10 14 19 14 20
ROOT
ATOM     1   N2  UNL     1       2.369  -0.220  -0.449  1.00  0.00    -0.202 N   
ATOM     2   C8  UNL     1       1.139   0.273  -0.797  1.00  0.00     0.046 A   
ATOM     3   C9  UNL     1       0.618   0.749   0.384  1.00  0.00     0.127 A   
ATOM     4   N4  UNL     1       1.521   0.524   1.393  1.00  0.00    -0.132 NA  
ATOM     5   N5  UNL     1       2.583  -0.070   0.874  1.00  0.00    -0.075 NA  
ATOM     6   H9  UNL     1       0.767   0.223  -1.812  1.00  0.00     0.083 HD  
ENDROOT
BRANCH   1   7
ATOM     7   C2  UNL     1       3.329  -0.959  -1.272  1.00  0.00     0.157 C   
BRANCH   7   8
ATOM     8   C1  UNL     1       4.046  -0.021  -2.265  1.00  0.00     0.186 C   
BRANCH   8   9
ATOM     9   O1  UNL     1       3.151   0.624  -3.171  1.00  0.00    -0.394 OA  
ATOM     10  H1  UNL     1       3.695   1.176  -3.764  1.00  0.00     0.210 HD  
ENDBRANCH   8   9
ENDBRANCH   7   8
BRANCH   7  11
ATOM     11  C3  UNL     1       2.672  -2.210  -1.826  1.00  0.00    -0.005 A   
ATOM     12  C4  UNL     1       2.368  -2.414  -3.175  1.00  0.00     0.009 A   
ATOM     13  C7  UNL     1       2.306  -3.228  -0.941  1.00  0.00     0.116 A   
ATOM     14  C5  UNL     1       1.731  -3.588  -3.576  1.00  0.00     0.020 A   
ATOM     15  N1  UNL     1       1.671  -4.365  -1.300  1.00  0.00    -0.264 NA  
ATOM     16  C6  UNL     1       1.405  -4.525  -2.611  1.00  0.00     0.111 A   
ENDBRANCH   7  11
ENDBRANCH   1   7
BRANCH   3  17
ATOM     17  C10 UNL     1      -0.716   1.341   0.703  1.00  0.00     0.117 C   
BRANCH  17  18
ATOM     18  N3  UNL     1      -1.137   0.926   2.098  1.00  0.00     0.249 N   
ATOM     19  H11 UNL     1      -1.897   1.524   2.435  1.00  0.00     0.199 HD  
ATOM     20  H12 UNL     1      -0.321   1.092   2.704  1.00  0.00     0.199 HD  
BRANCH  18  21
ATOM     21  C11 UNL     1      -1.526  -0.507   2.263  1.00  0.00     0.164 C   
BRANCH  21  22
ATOM     22  C12 UNL     1      -2.833  -0.833   1.596  1.00  0.00    -0.002 A   
ATOM     23  C13 UNL     1      -4.053  -0.365   2.142  1.00  0.00     0.012 A   
ATOM     24  C17 UNL     1      -2.851  -1.585   0.407  1.00  0.00     0.045 A   
ATOM     25  C14 UNL     1      -5.273  -0.631   1.509  1.00  0.00     0.037 A   
ATOM     26  C16 UNL     1      -4.070  -1.829  -0.190  1.00  0.00     0.109 A   
ATOM     27  C15 UNL     1      -5.247  -1.366   0.345  1.00  0.00     0.108 A   
ATOM     28  O2  UNL     1      -4.262  -2.526  -1.341  1.00  0.00    -0.316 OA  
ATOM     29  O3  UNL     1      -6.328  -1.715  -0.400  1.00  0.00    -0.316 OA  
ATOM     30  C18 UNL     1      -5.704  -2.488  -1.448  1.00  0.00     0.337 C   
ENDBRANCH  21  22
ENDBRANCH  18  21
ENDBRANCH  17  18
BRANCH  17  31
ATOM     31  C19 UNL     1      -0.765   2.882   0.631  1.00  0.00     0.043 C   
ATOM     32  C20 UNL     1       0.198   3.635   1.563  1.00  0.00     0.010 C   
ATOM     33  C23 UNL     1      -0.510   3.462  -0.777  1.00  0.00     0.010 C   
ATOM     34  C21 UNL     1       0.419   4.966   0.858  1.00  0.00     0.001 C   
ATOM     35  C22 UNL     1       0.539   4.557  -0.601  1.00  0.00     0.001 C   
ENDBRANCH  17  31
ENDBRANCH   3  17
TORSDOF 9
