REMARK SMILES OC[C@@H](c1cccnc1)n1cc([C@@H]([NH2+]Cc2ccc3c(c2)OCO3)C2CCCC2)nn1
REMARK SMILES IDX 10 1 11 2 12 3 30 4 31 5 3 7 2 8 1 9 4 11 5 12 9 13 6 14
REMARK SMILES IDX 8 15 7 16 13 17 14 18 15 21 16 22 17 23 21 24 18 25 20 26
REMARK SMILES IDX 19 27 22 28 24 29 23 30 25 31 26 32 29 33 27 34 28 35
REMARK H PARENT 11 6 1 10 14 19 14 20
ROOT
ATOM     1   N2  UNL     1       0.702  -0.044   3.132  1.00  0.00    -0.202 N   
ATOM     2   C8  UNL     1       0.409  -0.087   1.795  1.00  0.00     0.046 A   
ATOM     3   C9  UNL     1       1.167  -1.130   1.316  1.00  0.00     0.127 A   
ATOM     4   N4  UNL     1       1.902  -1.662   2.342  1.00  0.00    -0.132 NA  
ATOM     5   N5  UNL     1       1.620  -0.985   3.444  1.00  0.00    -0.075 NA  
ATOM     6   H9  UNL     1      -0.280   0.605   1.329  1.00  0.00     0.083 HD  
ENDROOT
BRANCH   1   7
ATOM     7   C2  UNL     1       0.199   0.862   4.164  1.00  0.00     0.157 C   
BRANCH   7   8
ATOM     8   C1  UNL     1       1.002   2.179   4.186  1.00  0.00     0.186 C   
BRANCH   8   9
ATOM     9   O1  UNL     1       1.014   2.845   2.921  1.00  0.00    -0.394 OA  
ATOM     10  H1  UNL     1       1.437   3.713   3.064  1.00  0.00     0.210 HD  
ENDBRANCH   8   9
ENDBRANCH   7   8
BRANCH   7  11
ATOM     11  C3  UNL     1      -1.311   0.986   4.086  1.00  0.00    -0.005 A   
ATOM     12  C4  UNL     1      -2.128   0.013   4.682  1.00  0.00     0.009 A   
ATOM     13  C7  UNL     1      -1.958   2.015   3.406  1.00  0.00     0.116 A   
ATOM     14  C5  UNL     1      -3.514   0.111   4.591  1.00  0.00     0.020 A   
ATOM     15  N1  UNL     1      -3.300   2.125   3.294  1.00  0.00    -0.264 NA  
ATOM     16  C6  UNL     1      -4.050   1.177   3.894  1.00  0.00     0.111 A   
ENDBRANCH   7  11
ENDBRANCH   1   7
BRANCH   3  17
ATOM     17  C10 UNL     1       1.327  -1.660  -0.070  1.00  0.00     0.117 C   
BRANCH  17  18
ATOM     18  N3  UNL     1       2.790  -1.938  -0.350  1.00  0.00     0.249 N   
ATOM     19  H11 UNL     1       3.109  -2.581   0.388  1.00  0.00     0.199 HD  
ATOM     20  H12 UNL     1       2.894  -2.422  -1.246  1.00  0.00     0.199 HD  
BRANCH  18  21
ATOM     21  C11 UNL     1       3.703  -0.755  -0.337  1.00  0.00     0.164 C   
BRANCH  21  22
ATOM     22  C12 UNL     1       3.383   0.247  -1.410  1.00  0.00    -0.002 A   
ATOM     23  C13 UNL     1       2.774   1.480  -1.074  1.00  0.00     0.012 A   
ATOM     24  C17 UNL     1       3.654  -0.046  -2.758  1.00  0.00     0.045 A   
ATOM     25  C14 UNL     1       2.433   2.407  -2.065  1.00  0.00     0.037 A   
ATOM     26  C16 UNL     1       3.304   0.889  -3.709  1.00  0.00     0.109 A   
ATOM     27  C15 UNL     1       2.710   2.081  -3.373  1.00  0.00     0.108 A   
ATOM     28  O2  UNL     1       3.489   0.760  -5.049  1.00  0.00    -0.316 OA  
ATOM     29  O3  UNL     1       2.448   2.853  -4.460  1.00  0.00    -0.316 OA  
ATOM     30  C18 UNL     1       2.967   2.024  -5.521  1.00  0.00     0.337 C   
ENDBRANCH  21  22
ENDBRANCH  18  21
ENDBRANCH  17  18
BRANCH  17  31
ATOM     31  C19 UNL     1       0.537  -2.966  -0.281  1.00  0.00     0.043 C   
ATOM     32  C20 UNL     1      -0.977  -2.794  -0.119  1.00  0.00     0.010 C   
ATOM     33  C23 UNL     1       0.641  -3.545  -1.697  1.00  0.00     0.010 C   
ATOM     34  C21 UNL     1      -1.545  -4.064  -0.733  1.00  0.00     0.001 C   
ATOM     35  C22 UNL     1      -0.603  -4.413  -1.881  1.00  0.00     0.001 C   
ENDBRANCH  17  31
ENDBRANCH   3  17
TORSDOF 9
