REMARK SMILES CCc1n[nH]c(C(C)C)c1Cn1cc([C@@H]([NH2+]Cc2ccc3c(c2)OCO3)C(C)C)nn1
REMARK SMILES IDX 12 1 13 2 14 3 30 4 31 5 11 7 10 8 3 9 4 10 5 11 6 12 2 14
REMARK SMILES IDX 1 15 7 16 8 17 9 18 15 19 16 20 17 23 18 24 19 25 23 26
REMARK SMILES IDX 20 27 22 28 21 29 24 30 26 31 25 32 27 33 28 34 29 35
REMARK H PARENT 13 6 5 13 16 21 16 22
ROOT
ATOM     1   N3  UNL     1      -0.016   2.809   1.758  1.00  0.00    -0.208 N   
ATOM     2   C10 UNL     1      -0.311   1.472   1.784  1.00  0.00     0.046 A   
ATOM     3   C11 UNL     1       0.595   0.950   2.681  1.00  0.00     0.127 A   
ATOM     4   N5  UNL     1       1.376   1.963   3.176  1.00  0.00    -0.132 NA  
ATOM     5   N6  UNL     1       0.991   3.094   2.607  1.00  0.00    -0.076 NA  
ATOM     6   H16 UNL     1      -1.080   1.036   1.161  1.00  0.00     0.083 HD  
ENDROOT
BRANCH   1   7
ATOM     7   C9  UNL     1      -0.607   3.844   0.925  1.00  0.00     0.173 C   
BRANCH   7   8
ATOM     8   C8  UNL     1      -0.211   3.647  -0.500  1.00  0.00     0.013 A   
ATOM     9   C3  UNL     1       1.055   3.940  -1.091  1.00  0.00     0.065 A   
ATOM     10  N1  UNL     1       1.080   3.612  -2.386  1.00  0.00    -0.189 NA  
ATOM     11  N2  UNL     1      -0.165   3.205  -2.655  1.00  0.00    -0.242 N   
ATOM     12  C4  UNL     1      -0.980   3.166  -1.552  1.00  0.00     0.034 A   
ATOM     13  H6  UNL     1      -0.391   2.962  -3.615  1.00  0.00     0.175 HD  
BRANCH   9  14
ATOM     14  C2  UNL     1       2.277   4.536  -0.465  1.00  0.00     0.055 C   
ATOM     15  C1  UNL     1       3.357   3.501  -0.190  1.00  0.00     0.011 C   
ENDBRANCH   9  14
BRANCH  12  16
ATOM     16  C5  UNL     1      -2.412   2.720  -1.632  1.00  0.00     0.029 C   
ATOM     17  C6  UNL     1      -2.539   1.326  -2.250  1.00  0.00     0.014 C   
ATOM     18  C7  UNL     1      -3.256   3.737  -2.399  1.00  0.00     0.014 C   
ENDBRANCH  12  16
ENDBRANCH   7   8
ENDBRANCH   1   7
BRANCH   3  19
ATOM     19  C12 UNL     1       0.873  -0.462   3.082  1.00  0.00     0.117 C   
BRANCH  19  20
ATOM     20  N4  UNL     1       2.367  -0.723   3.013  1.00  0.00     0.249 N   
ATOM     21  H18 UNL     1       2.811  -0.061   3.664  1.00  0.00     0.199 HD  
ATOM     22  H19 UNL     1       2.580  -1.668   3.339  1.00  0.00     0.199 HD  
BRANCH  20  23
ATOM     23  C13 UNL     1       3.021  -0.537   1.679  1.00  0.00     0.164 C   
BRANCH  23  24
ATOM     24  C14 UNL     1       2.473  -1.446   0.614  1.00  0.00    -0.002 A   
ATOM     25  C15 UNL     1       1.731  -0.912  -0.468  1.00  0.00     0.012 A   
ATOM     26  C19 UNL     1       2.680  -2.835   0.691  1.00  0.00     0.045 A   
ATOM     27  C16 UNL     1       1.191  -1.747  -1.452  1.00  0.00     0.037 A   
ATOM     28  C18 UNL     1       2.139  -3.628  -0.298  1.00  0.00     0.109 A   
ATOM     29  C17 UNL     1       1.412  -3.102  -1.337  1.00  0.00     0.108 A   
ATOM     30  O1  UNL     1       2.255  -4.979  -0.375  1.00  0.00    -0.316 OA  
ATOM     31  O2  UNL     1       0.980  -4.055  -2.202  1.00  0.00    -0.316 OA  
ATOM     32  C20 UNL     1       1.546  -5.244  -1.608  1.00  0.00     0.337 C   
ENDBRANCH  23  24
ENDBRANCH  20  23
ENDBRANCH  19  20
BRANCH  19  33
ATOM     33  C21 UNL     1       0.374  -0.772   4.524  1.00  0.00     0.037 C   
ATOM     34  C22 UNL     1      -1.142  -0.555   4.648  1.00  0.00     0.014 C   
ATOM     35  C23 UNL     1       0.693  -2.207   4.969  1.00  0.00     0.014 C   
ENDBRANCH  19  33
ENDBRANCH   3  19
TORSDOF 9
