REMARK SMILES Cc1cc(=[N+]2C=C([C@@H]([NH2+]Cc3ccc4c(c3)OCO4)C3CCCCC3)N=N2)cc(C)n1C
REMARK SMILES IDX 8 1 7 2 5 3 6 4 27 5 26 6 4 7 2 8 3 9 31 10 29 11 28 12 1 13
REMARK SMILES IDX 32 14 30 15 9 16 10 19 11 20 12 21 16 22 13 23 15 24 14 25
REMARK SMILES IDX 17 26 19 27 18 28 20 29 21 30 25 31 22 32 24 33 23 34
REMARK H PARENT 9 17 9 18
ROOT
ATOM     1   C7  UNL     1       2.360   0.255   0.038  1.00  0.00     0.117 C   
ENDROOT
BRANCH   1   2
ATOM     2   C6  UNL     1       1.074  -0.232  -0.577  1.00  0.00     0.127 C   
ATOM     3   N1  UNL     1      -0.567  -1.273  -1.592  1.00  0.00    -0.181 N   
ATOM     4   C5  UNL     1       0.793  -1.335  -1.359  1.00  0.00     0.135 C   
ATOM     5   N4  UNL     1      -1.061  -0.157  -1.006  1.00  0.00    -0.071 NA  
ATOM     6   N3  UNL     1      -0.082   0.469  -0.375  1.00  0.00    -0.131 NA  
BRANCH   3   7
ATOM     7   C4  UNL     1      -1.410  -2.167  -2.307  1.00  0.00     0.061 A   
ATOM     8   C2  UNL     1      -1.790  -4.196  -3.588  1.00  0.00     0.008 A   
ATOM     9   C3  UNL     1      -0.923  -3.330  -2.892  1.00  0.00     0.045 A   
ATOM     10  N5  UNL     1      -3.114  -3.875  -3.724  1.00  0.00    -0.311 N   
ATOM     11  C23 UNL     1      -3.626  -2.762  -3.117  1.00  0.00     0.008 A   
ATOM     12  C22 UNL     1      -2.771  -1.892  -2.421  1.00  0.00     0.045 A   
ATOM     13  C1  UNL     1      -1.225  -5.456  -4.191  1.00  0.00     0.062 C   
ATOM     14  C25 UNL     1      -4.013  -4.754  -4.523  1.00  0.00     0.135 C   
ATOM     15  C24 UNL     1      -5.094  -2.428  -3.198  1.00  0.00     0.062 C   
ENDBRANCH   3   7
ENDBRANCH   1   2
BRANCH   1  16
ATOM     16  N2  UNL     1       2.216   1.661   0.551  1.00  0.00     0.249 N   
ATOM     17  H7  UNL     1       2.886   1.875   1.297  1.00  0.00     0.199 HD  
ATOM     18  H8  UNL     1       1.284   1.738   0.988  1.00  0.00     0.199 HD  
BRANCH  16  19
ATOM     19  C8  UNL     1       2.311   2.741  -0.471  1.00  0.00     0.164 C   
BRANCH  19  20
ATOM     20  C9  UNL     1       1.972   4.067   0.146  1.00  0.00    -0.002 A   
ATOM     21  C10 UNL     1       0.624   4.498   0.202  1.00  0.00     0.012 A   
ATOM     22  C14 UNL     1       2.976   4.854   0.735  1.00  0.00     0.045 A   
ATOM     23  C11 UNL     1       0.279   5.700   0.829  1.00  0.00     0.037 A   
ATOM     24  C13 UNL     1       2.601   6.034   1.347  1.00  0.00     0.109 A   
ATOM     25  C12 UNL     1       1.291   6.444   1.394  1.00  0.00     0.108 A   
ATOM     26  O1  UNL     1       3.442   6.903   1.966  1.00  0.00    -0.316 OA  
ATOM     27  O2  UNL     1       1.143   7.625   2.046  1.00  0.00    -0.316 OA  
ATOM     28  C15 UNL     1       2.512   7.924   2.398  1.00  0.00     0.337 C   
ENDBRANCH  19  20
ENDBRANCH  16  19
ENDBRANCH   1  16
BRANCH   1  29
ATOM     29  C16 UNL     1       2.845  -0.684   1.177  1.00  0.00     0.043 C   
ATOM     30  C17 UNL     1       4.312  -0.405   1.562  1.00  0.00     0.010 C   
ATOM     31  C21 UNL     1       1.946  -0.653   2.431  1.00  0.00     0.010 C   
ATOM     32  C18 UNL     1       4.804  -1.372   2.638  1.00  0.00     0.001 C   
ATOM     33  C20 UNL     1       2.450  -1.613   3.509  1.00  0.00     0.001 C   
ATOM     34  C19 UNL     1       3.906  -1.342   3.870  1.00  0.00     0.000 C   
ENDBRANCH   1  29
TORSDOF 6
