REMARK SMILES CC(C)[C@H]([NH2+]Cc1ccc2c(c1)OCO2)c1cn(-c2cc(O)ccc2F)nn1
REMARK SMILES IDX 16 1 17 2 18 3 27 4 28 5 4 6 2 7 1 8 3 9 5 10 6 13 7 14 8 15
REMARK SMILES IDX 12 16 9 17 11 18 10 19 13 20 15 21 14 22 19 23 20 24 25 25
REMARK SMILES IDX 21 26 24 27 23 28 26 29 22 30
REMARK H PARENT 5 11 5 12 22 31
ROOT
ATOM     1   C13 UNL     1      -0.019  -0.988   0.687  1.00  0.00     0.127 A   
ATOM     2   C14 UNL     1       0.592  -2.204   0.897  1.00  0.00     0.135 A   
ATOM     3   N2  UNL     1       0.137  -3.023  -0.119  1.00  0.00    -0.178 N   
ATOM     4   N3  UNL     1      -0.682  -2.291  -0.923  1.00  0.00    -0.071 NA  
ATOM     5   N4  UNL     1      -0.790  -1.066  -0.437  1.00  0.00    -0.131 NA  
ENDROOT
BRANCH   1   6
ATOM     6   C4  UNL     1       0.078   0.310   1.425  1.00  0.00     0.117 C   
BRANCH   6   7
ATOM     7   C2  UNL     1      -0.918   0.448   2.605  1.00  0.00     0.037 C   
ATOM     8   C1  UNL     1      -2.392   0.336   2.198  1.00  0.00     0.014 C   
ATOM     9   C3  UNL     1      -0.613  -0.553   3.726  1.00  0.00     0.014 C   
ENDBRANCH   6   7
BRANCH   6  10
ATOM     10  N1  UNL     1      -0.152   1.461   0.475  1.00  0.00     0.249 N   
ATOM     11  H9  UNL     1      -0.410   2.317   0.975  1.00  0.00     0.199 HD  
ATOM     12  H10 UNL     1      -0.965   1.211  -0.109  1.00  0.00     0.199 HD  
BRANCH  10  13
ATOM     13  C5  UNL     1       0.975   1.760  -0.452  1.00  0.00     0.164 C   
BRANCH  13  14
ATOM     14  C6  UNL     1       0.588   2.853  -1.408  1.00  0.00    -0.002 A   
ATOM     15  C7  UNL     1      -0.086   2.536  -2.612  1.00  0.00     0.012 A   
ATOM     16  C11 UNL     1       0.841   4.198  -1.088  1.00  0.00     0.045 A   
ATOM     17  C8  UNL     1      -0.493   3.544  -3.493  1.00  0.00     0.037 A   
ATOM     18  C10 UNL     1       0.425   5.166  -1.979  1.00  0.00     0.109 A   
ATOM     19  C9  UNL     1      -0.223   4.849  -3.147  1.00  0.00     0.108 A   
ATOM     20  O1  UNL     1       0.590   6.505  -1.822  1.00  0.00    -0.316 OA  
ATOM     21  O2  UNL     1      -0.546   5.949  -3.875  1.00  0.00    -0.316 OA  
ATOM     22  C12 UNL     1      -0.008   6.999  -3.043  1.00  0.00     0.337 C   
ENDBRANCH  13  14
ENDBRANCH  10  13
ENDBRANCH   6  10
ENDBRANCH   1   6
BRANCH   3  23
ATOM     23  C15 UNL     1       0.415  -4.383  -0.390  1.00  0.00     0.096 A   
ATOM     24  C16 UNL     1      -0.175  -4.998  -1.506  1.00  0.00     0.062 A   
ATOM     25  C20 UNL     1       1.262  -5.138   0.425  1.00  0.00     0.146 A   
ATOM     26  C17 UNL     1       0.090  -6.338  -1.782  1.00  0.00     0.073 A   
ATOM     27  C19 UNL     1       1.521  -6.480   0.141  1.00  0.00     0.044 A   
ATOM     28  C18 UNL     1       0.933  -7.087  -0.969  1.00  0.00     0.036 A   
ATOM     29  F1  UNL     1       1.857  -4.611   1.503  1.00  0.00    -0.205 F   
BRANCH  26  30
ATOM     30  O3  UNL     1      -0.508  -6.882  -2.877  1.00  0.00    -0.361 OA  
ATOM     31  H20 UNL     1      -0.257  -7.819  -2.954  1.00  0.00     0.218 HD  
ENDBRANCH  26  30
ENDBRANCH   3  23
TORSDOF 7
