REMARK SMILES CC(C)(C)[C@H]([NH2+]Cc1ccc2c(c1)OCO2)c1cn(CCc2cnn(C(C)(C)C)c2)nn1
REMARK SMILES IDX 17 1 18 2 19 3 31 4 32 5 5 7 2 8 1 9 3 10 4 11 6 12 7 15
REMARK SMILES IDX 8 16 9 17 13 18 10 19 12 20 11 21 14 22 16 23 15 24 20 25
REMARK SMILES IDX 21 26 22 27 23 28 30 29 24 30 25 31 26 32 27 33 28 34 29 35
REMARK H PARENT 18 6 6 13 6 14
ROOT
ATOM     1   C14 UNL     1      -0.382  -1.675   0.775  1.00  0.00     0.127 A   
ATOM     2   C15 UNL     1      -0.286  -1.566   2.146  1.00  0.00     0.045 A   
ATOM     3   N2  UNL     1      -1.583  -1.397   2.560  1.00  0.00    -0.212 N   
ATOM     4   N5  UNL     1      -2.435  -1.549   1.533  1.00  0.00    -0.076 NA  
ATOM     5   N6  UNL     1      -1.714  -1.720   0.436  1.00  0.00    -0.132 NA  
ATOM     6   H20 UNL     1       0.538  -1.448   2.833  1.00  0.00     0.083 HD  
ENDROOT
BRANCH   1   7
ATOM     7   C5  UNL     1       0.639  -1.580  -0.324  1.00  0.00     0.120 C   
BRANCH   7   8
ATOM     8   C2  UNL     1       2.056  -2.199  -0.059  1.00  0.00     0.010 C   
ATOM     9   C1  UNL     1       2.930  -1.367   0.898  1.00  0.00     0.017 C   
ATOM     10  C3  UNL     1       1.925  -3.633   0.499  1.00  0.00     0.017 C   
ATOM     11  C4  UNL     1       2.822  -2.317  -1.402  1.00  0.00     0.017 C   
ENDBRANCH   7   8
BRANCH   7  12
ATOM     12  N1  UNL     1       0.765  -0.133  -0.771  1.00  0.00     0.250 N   
ATOM     13  H11 UNL     1       1.692   0.071  -1.145  1.00  0.00     0.199 HD  
ATOM     14  H12 UNL     1       0.658   0.494   0.054  1.00  0.00     0.199 HD  
BRANCH  12  15
ATOM     15  C6  UNL     1      -0.244   0.334  -1.768  1.00  0.00     0.164 C   
BRANCH  15  16
ATOM     16  C7  UNL     1      -0.003  -0.230  -3.142  1.00  0.00    -0.002 A   
ATOM     17  C8  UNL     1      -0.844  -1.247  -3.655  1.00  0.00     0.012 A   
ATOM     18  C12 UNL     1       1.079   0.227  -3.914  1.00  0.00     0.045 A   
ATOM     19  C9  UNL     1      -0.607  -1.809  -4.913  1.00  0.00     0.037 A   
ATOM     20  C11 UNL     1       1.285  -0.349  -5.150  1.00  0.00     0.109 A   
ATOM     21  C10 UNL     1       0.467  -1.339  -5.636  1.00  0.00     0.108 A   
ATOM     22  O1  UNL     1       2.285  -0.030  -6.013  1.00  0.00    -0.316 OA  
ATOM     23  O2  UNL     1       0.848  -1.768  -6.867  1.00  0.00    -0.316 OA  
ATOM     24  C13 UNL     1       1.984  -0.914  -7.118  1.00  0.00     0.337 C   
ENDBRANCH  15  16
ENDBRANCH  12  15
ENDBRANCH   7  12
ENDBRANCH   1   7
BRANCH   3  25
ATOM     25  C16 UNL     1      -2.015  -0.768   3.796  1.00  0.00     0.139 C   
BRANCH  25  26
ATOM     26  C17 UNL     1      -2.257   0.746   3.635  1.00  0.00     0.060 C   
BRANCH  26  27
ATOM     27  C18 UNL     1      -1.143   1.431   2.907  1.00  0.00    -0.011 A   
ATOM     28  C19 UNL     1      -1.064   1.651   1.515  1.00  0.00     0.136 A   
ATOM     29  C24 UNL     1       0.057   1.907   3.385  1.00  0.00     0.101 A   
ATOM     30  N3  UNL     1       0.167   2.001   1.121  1.00  0.00    -0.189 NA  
ATOM     31  N4  UNL     1       0.780   2.327   2.295  1.00  0.00    -0.227 N   
BRANCH  31  32
ATOM     32  C20 UNL     1       2.088   3.013   2.316  1.00  0.00     0.047 C   
ATOM     33  C21 UNL     1       1.928   4.386   2.993  1.00  0.00     0.034 C   
ATOM     34  C22 UNL     1       2.639   3.239   0.890  1.00  0.00     0.034 C   
ATOM     35  C23 UNL     1       3.114   2.168   3.094  1.00  0.00     0.034 C   
ENDBRANCH  31  32
ENDBRANCH  26  27
ENDBRANCH  25  26
ENDBRANCH   3  25
TORSDOF 9
