REMARK SMILES CC(C)C[C@H]([NH2+]Cc1ccc2c(c1)OCO2)c1cn(C[C@H](O)c2cncc(F)c2)nn1
REMARK SMILES IDX 17 1 18 2 19 3 30 4 31 5 5 7 4 8 2 9 1 10 3 11 6 12 7 15
REMARK SMILES IDX 8 16 9 17 13 18 10 19 12 20 11 21 14 22 16 23 15 24 20 25
REMARK SMILES IDX 21 26 22 27 23 29 24 30 29 31 25 32 27 33 26 34 28 35
REMARK H PARENT 18 6 6 13 6 14 22 28
ROOT
ATOM     1   C14 UNL     1       0.521  -0.083   2.190  1.00  0.00     0.127 A   
ATOM     2   C15 UNL     1      -0.477   0.826   2.475  1.00  0.00     0.045 A   
ATOM     3   N2  UNL     1      -1.546   0.037   2.809  1.00  0.00    -0.209 N   
ATOM     4   N4  UNL     1      -1.174  -1.247   2.927  1.00  0.00    -0.076 NA  
ATOM     5   N5  UNL     1       0.084  -1.339   2.529  1.00  0.00    -0.132 NA  
ATOM     6   H20 UNL     1      -0.577   1.889   2.308  1.00  0.00     0.083 HD  
ENDROOT
BRANCH   1   7
ATOM     7   C5  UNL     1       1.794   0.034   1.406  1.00  0.00     0.114 C   
BRANCH   7   8
ATOM     8   C4  UNL     1       2.244   1.475   1.108  1.00  0.00     0.064 C   
BRANCH   8   9
ATOM     9   C2  UNL     1       2.690   2.286   2.345  1.00  0.00    -0.012 C   
ATOM     10  C1  UNL     1       3.897   1.660   3.045  1.00  0.00     0.007 C   
ATOM     11  C3  UNL     1       3.024   3.720   1.927  1.00  0.00     0.007 C   
ENDBRANCH   8   9
ENDBRANCH   7   8
BRANCH   7  12
ATOM     12  N1  UNL     1       1.549  -0.685   0.100  1.00  0.00     0.249 N   
ATOM     13  H11 UNL     1       0.873  -0.159  -0.490  1.00  0.00     0.199 HD  
ATOM     14  H12 UNL     1       1.018  -1.537   0.335  1.00  0.00     0.199 HD  
BRANCH  12  15
ATOM     15  C6  UNL     1       2.722  -1.106  -0.695  1.00  0.00     0.164 C   
BRANCH  15  16
ATOM     16  C7  UNL     1       2.290  -1.879  -1.910  1.00  0.00    -0.002 A   
ATOM     17  C8  UNL     1       2.150  -3.286  -1.855  1.00  0.00     0.012 A   
ATOM     18  C12 UNL     1       1.963  -1.196  -3.094  1.00  0.00     0.045 A   
ATOM     19  C9  UNL     1       1.702  -4.006  -2.968  1.00  0.00     0.037 A   
ATOM     20  C11 UNL     1       1.524  -1.937  -4.171  1.00  0.00     0.109 A   
ATOM     21  C10 UNL     1       1.397  -3.303  -4.111  1.00  0.00     0.108 A   
ATOM     22  O1  UNL     1       1.171  -1.435  -5.383  1.00  0.00    -0.316 OA  
ATOM     23  O2  UNL     1       0.945  -3.833  -5.277  1.00  0.00    -0.316 OA  
ATOM     24  C13 UNL     1       0.811  -2.645  -6.087  1.00  0.00     0.337 C   
ENDBRANCH  15  16
ENDBRANCH  12  15
ENDBRANCH   7  12
ENDBRANCH   1   7
BRANCH   3  25
ATOM     25  C16 UNL     1      -2.953   0.398   2.741  1.00  0.00     0.170 C   
BRANCH  25  26
ATOM     26  C17 UNL     1      -3.589   0.127   1.353  1.00  0.00     0.165 C   
BRANCH  26  27
ATOM     27  O3  UNL     1      -3.819  -1.265   1.141  1.00  0.00    -0.387 OA  
ATOM     28  H24 UNL     1      -4.426  -1.590   1.831  1.00  0.00     0.211 HD  
ENDBRANCH  26  27
BRANCH  26  29
ATOM     29  C18 UNL     1      -2.755   0.658   0.204  1.00  0.00     0.003 A   
ATOM     30  C19 UNL     1      -1.757  -0.126  -0.384  1.00  0.00     0.117 A   
ATOM     31  C22 UNL     1      -2.859   1.985  -0.224  1.00  0.00     0.049 A   
ATOM     32  N3  UNL     1      -0.803   0.340  -1.237  1.00  0.00    -0.261 NA  
ATOM     33  C21 UNL     1      -1.974   2.458  -1.183  1.00  0.00     0.141 A   
ATOM     34  C20 UNL     1      -0.976   1.621  -1.656  1.00  0.00     0.150 A   
ATOM     35  F1  UNL     1      -2.056   3.724  -1.609  1.00  0.00    -0.205 F   
ENDBRANCH  26  29
ENDBRANCH  25  26
ENDBRANCH   3  25
TORSDOF 10
