REMARK SMILES CC(C)C[C@H]([NH2+]Cc1ccc2c(c1)OCO2)c1cn(C[C@@H](O)c2cncc(F)c2)nn1
REMARK SMILES IDX 17 1 18 2 19 3 30 4 31 5 5 7 4 8 2 9 1 10 3 11 6 12 7 15
REMARK SMILES IDX 8 16 9 17 13 18 10 19 12 20 11 21 14 22 16 23 15 24 20 25
REMARK SMILES IDX 21 26 22 27 23 29 24 30 29 31 25 32 27 33 26 34 28 35
REMARK H PARENT 18 6 6 13 6 14 22 28
ROOT
ATOM     1   C14 UNL     1       0.681  -0.390  -1.901  1.00  0.00     0.127 A   
ATOM     2   C15 UNL     1      -0.077  -0.878  -2.945  1.00  0.00     0.045 A   
ATOM     3   N2  UNL     1       0.165  -2.227  -2.910  1.00  0.00    -0.209 N   
ATOM     4   N4  UNL     1       1.170  -2.510  -2.064  1.00  0.00    -0.076 NA  
ATOM     5   N5  UNL     1       1.488  -1.392  -1.430  1.00  0.00    -0.132 NA  
ATOM     6   H20 UNL     1      -0.853  -0.443  -3.560  1.00  0.00     0.083 HD  
ENDROOT
BRANCH   1   7
ATOM     7   C5  UNL     1       0.607   0.928  -1.209  1.00  0.00     0.114 C   
BRANCH   7   8
ATOM     8   C4  UNL     1       1.935   1.703  -1.184  1.00  0.00     0.064 C   
BRANCH   8   9
ATOM     9   C2  UNL     1       2.466   2.115  -2.576  1.00  0.00    -0.012 C   
ATOM     10  C1  UNL     1       3.835   2.785  -2.427  1.00  0.00     0.007 C   
ATOM     11  C3  UNL     1       1.513   3.055  -3.315  1.00  0.00     0.007 C   
ENDBRANCH   8   9
ENDBRANCH   7   8
BRANCH   7  12
ATOM     12  N1  UNL     1       0.047   0.806   0.189  1.00  0.00     0.249 N   
ATOM     13  H11 UNL     1      -0.120   1.740   0.577  1.00  0.00     0.199 HD  
ATOM     14  H12 UNL     1      -0.890   0.363   0.124  1.00  0.00     0.199 HD  
BRANCH  12  15
ATOM     15  C6  UNL     1       0.803   0.001   1.193  1.00  0.00     0.164 C   
BRANCH  15  16
ATOM     16  C7  UNL     1       0.327   0.324   2.585  1.00  0.00    -0.002 A   
ATOM     17  C8  UNL     1      -0.847  -0.277   3.100  1.00  0.00     0.012 A   
ATOM     18  C12 UNL     1       1.019   1.268   3.364  1.00  0.00     0.045 A   
ATOM     19  C9  UNL     1      -1.322   0.049   4.375  1.00  0.00     0.037 A   
ATOM     20  C11 UNL     1       0.526   1.564   4.618  1.00  0.00     0.109 A   
ATOM     21  C10 UNL     1      -0.612   0.972   5.109  1.00  0.00     0.108 A   
ATOM     22  O1  UNL     1       1.073   2.446   5.495  1.00  0.00    -0.316 OA  
ATOM     23  O2  UNL     1      -0.926   1.409   6.356  1.00  0.00    -0.316 OA  
ATOM     24  C13 UNL     1       0.163   2.323   6.611  1.00  0.00     0.337 C   
ENDBRANCH  15  16
ENDBRANCH  12  15
ENDBRANCH   7  12
ENDBRANCH   1   7
BRANCH   3  25
ATOM     25  C16 UNL     1      -0.698  -3.280  -3.418  1.00  0.00     0.170 C   
BRANCH  25  26
ATOM     26  C17 UNL     1      -1.768  -3.742  -2.395  1.00  0.00     0.165 C   
BRANCH  26  27
ATOM     27  O3  UNL     1      -1.202  -4.560  -1.373  1.00  0.00    -0.387 OA  
ATOM     28  H24 UNL     1      -0.776  -5.331  -1.791  1.00  0.00     0.211 HD  
ENDBRANCH  26  27
BRANCH  26  29
ATOM     29  C18 UNL     1      -2.499  -2.589  -1.736  1.00  0.00     0.003 A   
ATOM     30  C19 UNL     1      -1.998  -1.995  -0.572  1.00  0.00     0.117 A   
ATOM     31  C22 UNL     1      -3.615  -1.991  -2.327  1.00  0.00     0.049 A   
ATOM     32  N3  UNL     1      -2.438  -0.818  -0.044  1.00  0.00    -0.261 NA  
ATOM     33  C21 UNL     1      -4.157  -0.851  -1.748  1.00  0.00     0.141 A   
ATOM     34  C20 UNL     1      -3.551  -0.303  -0.628  1.00  0.00     0.150 A   
ATOM     35  F1  UNL     1      -5.222  -0.258  -2.298  1.00  0.00    -0.205 F   
ENDBRANCH  26  29
ENDBRANCH  25  26
ENDBRANCH   3  25
TORSDOF 10
