REMARK SMILES CC(C)(C)[C@H]([NH2+]Cc1ccc2c(c1)OCO2)c1cn([C@H](CO)c2ccncc2F)nn1
REMARK SMILES IDX 17 1 18 2 19 3 30 4 31 5 5 7 2 8 1 9 3 10 4 11 6 12 7 15
REMARK SMILES IDX 8 16 9 17 13 18 10 19 12 20 11 21 14 22 16 23 15 24 20 25
REMARK SMILES IDX 21 26 22 27 23 29 24 30 28 31 25 32 27 33 26 34 29 35
REMARK H PARENT 18 6 6 13 6 14 22 28
ROOT
ATOM     1   C14 UNL     1      -0.854   0.236  -0.200  1.00  0.00     0.127 A   
ATOM     2   C15 UNL     1      -0.606  -1.104  -0.001  1.00  0.00     0.046 A   
ATOM     3   N2  UNL     1      -1.628  -1.737  -0.654  1.00  0.00    -0.202 N   
ATOM     4   N4  UNL     1      -2.462  -0.835  -1.213  1.00  0.00    -0.075 NA  
ATOM     5   N5  UNL     1      -2.002   0.375  -0.936  1.00  0.00    -0.132 NA  
ATOM     6   H20 UNL     1       0.178  -1.645   0.512  1.00  0.00     0.083 HD  
ENDROOT
BRANCH   1   7
ATOM     7   C5  UNL     1      -0.049   1.439   0.177  1.00  0.00     0.120 C   
BRANCH   7   8
ATOM     8   C2  UNL     1      -0.483   2.097   1.538  1.00  0.00     0.010 C   
ATOM     9   C1  UNL     1       0.471   3.257   1.906  1.00  0.00     0.017 C   
ATOM     10  C3  UNL     1      -0.390   1.059   2.681  1.00  0.00     0.017 C   
ATOM     11  C4  UNL     1      -1.921   2.651   1.507  1.00  0.00     0.017 C   
ENDBRANCH   7   8
BRANCH   7  12
ATOM     12  N1  UNL     1      -0.084   2.470  -0.938  1.00  0.00     0.250 N   
ATOM     13  H11 UNL     1       0.435   3.307  -0.665  1.00  0.00     0.199 HD  
ATOM     14  H12 UNL     1      -1.068   2.738  -1.062  1.00  0.00     0.199 HD  
BRANCH  12  15
ATOM     15  C6  UNL     1       0.404   2.036  -2.287  1.00  0.00     0.164 C   
BRANCH  15  16
ATOM     16  C7  UNL     1       1.776   1.423  -2.277  1.00  0.00    -0.002 A   
ATOM     17  C8  UNL     1       2.918   2.198  -1.967  1.00  0.00     0.012 A   
ATOM     18  C12 UNL     1       1.923   0.052  -2.554  1.00  0.00     0.045 A   
ATOM     19  C9  UNL     1       4.189   1.611  -1.916  1.00  0.00     0.037 A   
ATOM     20  C11 UNL     1       3.187  -0.493  -2.494  1.00  0.00     0.109 A   
ATOM     21  C10 UNL     1       4.288   0.263  -2.180  1.00  0.00     0.108 A   
ATOM     22  O1  UNL     1       3.497  -1.795  -2.724  1.00  0.00    -0.316 OA  
ATOM     23  O2  UNL     1       5.432  -0.470  -2.168  1.00  0.00    -0.316 OA  
ATOM     24  C13 UNL     1       4.928  -1.777  -2.523  1.00  0.00     0.337 C   
ENDBRANCH  15  16
ENDBRANCH  12  15
ENDBRANCH   7  12
ENDBRANCH   1   7
BRANCH   3  25
ATOM     25  C16 UNL     1      -1.876  -3.173  -0.818  1.00  0.00     0.158 C   
BRANCH  25  26
ATOM     26  C17 UNL     1      -2.745  -3.691   0.345  1.00  0.00     0.186 C   
BRANCH  26  27
ATOM     27  O3  UNL     1      -2.111  -3.526   1.615  1.00  0.00    -0.394 OA  
ATOM     28  H24 UNL     1      -2.744  -3.832   2.292  1.00  0.00     0.210 HD  
ENDBRANCH  26  27
ENDBRANCH  25  26
BRANCH  25  29
ATOM     29  C18 UNL     1      -0.587  -3.925  -1.118  1.00  0.00     0.016 A   
ATOM     30  C19 UNL     1      -0.002  -4.856  -0.249  1.00  0.00     0.029 A   
ATOM     31  C22 UNL     1       0.074  -3.678  -2.326  1.00  0.00     0.146 A   
ATOM     32  C20 UNL     1       1.190  -5.472  -0.617  1.00  0.00     0.111 A   
ATOM     33  C21 UNL     1       1.258  -4.337  -2.613  1.00  0.00     0.150 A   
ATOM     34  N3  UNL     1       1.835  -5.228  -1.778  1.00  0.00    -0.262 NA  
ATOM     35  F1  UNL     1      -0.421  -2.790  -3.199  1.00  0.00    -0.205 F   
ENDBRANCH  25  29
ENDBRANCH   3  25
TORSDOF 9
