REMARK SMILES CC(C)(C)[C@H]([NH2+]Cc1ccc2c(c1)OCO2)c1cn([C@@H](CO)c2ccncc2F)nn1
REMARK SMILES IDX 17 1 18 2 19 3 30 4 31 5 5 7 2 8 1 9 3 10 4 11 6 12 7 15
REMARK SMILES IDX 8 16 9 17 13 18 10 19 12 20 11 21 14 22 16 23 15 24 20 25
REMARK SMILES IDX 21 26 22 27 23 29 24 30 28 31 25 32 27 33 26 34 29 35
REMARK H PARENT 18 6 6 13 6 14 22 28
ROOT
ATOM     1   C14 UNL     1       0.166   0.668  -0.442  1.00  0.00     0.127 A   
ATOM     2   C15 UNL     1      -0.741   1.703  -0.476  1.00  0.00     0.046 A   
ATOM     3   N2  UNL     1      -0.893   1.972  -1.810  1.00  0.00    -0.202 N   
ATOM     4   N4  UNL     1      -0.188   1.093  -2.553  1.00  0.00    -0.075 NA  
ATOM     5   N5  UNL     1       0.477   0.303  -1.728  1.00  0.00    -0.132 NA  
ATOM     6   H20 UNL     1      -1.260   2.263   0.290  1.00  0.00     0.083 HD  
ENDROOT
BRANCH   1   7
ATOM     7   C5  UNL     1       0.752  -0.099   0.705  1.00  0.00     0.120 C   
BRANCH   7   8
ATOM     8   C2  UNL     1       2.100   0.492   1.248  1.00  0.00     0.010 C   
ATOM     9   C1  UNL     1       1.911   1.970   1.661  1.00  0.00     0.017 C   
ATOM     10  C3  UNL     1       3.240   0.421   0.213  1.00  0.00     0.017 C   
ATOM     11  C4  UNL     1       2.548  -0.272   2.517  1.00  0.00     0.017 C   
ENDBRANCH   7   8
BRANCH   7  12
ATOM     12  N1  UNL     1       0.943  -1.535   0.275  1.00  0.00     0.250 N   
ATOM     13  H11 UNL     1       1.608  -2.039   0.867  1.00  0.00     0.199 HD  
ATOM     14  H12 UNL     1       1.364  -1.504  -0.666  1.00  0.00     0.199 HD  
BRANCH  12  15
ATOM     15  C6  UNL     1      -0.306  -2.339   0.168  1.00  0.00     0.164 C   
BRANCH  15  16
ATOM     16  C7  UNL     1       0.003  -3.722  -0.332  1.00  0.00    -0.002 A   
ATOM     17  C8  UNL     1       0.194  -4.789   0.577  1.00  0.00     0.012 A   
ATOM     18  C12 UNL     1       0.157  -3.949  -1.711  1.00  0.00     0.045 A   
ATOM     19  C9  UNL     1       0.524  -6.070   0.120  1.00  0.00     0.037 A   
ATOM     20  C11 UNL     1       0.484  -5.223  -2.127  1.00  0.00     0.109 A   
ATOM     21  C10 UNL     1       0.662  -6.254  -1.238  1.00  0.00     0.108 A   
ATOM     22  O1  UNL     1       0.670  -5.610  -3.416  1.00  0.00    -0.316 OA  
ATOM     23  O2  UNL     1       0.980  -7.421  -1.855  1.00  0.00    -0.316 OA  
ATOM     24  C13 UNL     1       0.968  -7.014  -3.240  1.00  0.00     0.337 C   
ENDBRANCH  15  16
ENDBRANCH  12  15
ENDBRANCH   7  12
ENDBRANCH   1   7
BRANCH   3  25
ATOM     25  C16 UNL     1      -1.694   3.011  -2.463  1.00  0.00     0.158 C   
BRANCH  25  26
ATOM     26  C17 UNL     1      -3.132   2.509  -2.703  1.00  0.00     0.186 C   
BRANCH  26  27
ATOM     27  O3  UNL     1      -3.797   2.138  -1.492  1.00  0.00    -0.394 OA  
ATOM     28  H24 UNL     1      -4.697   1.855  -1.741  1.00  0.00     0.210 HD  
ENDBRANCH  26  27
ENDBRANCH  25  26
BRANCH  25  29
ATOM     29  C18 UNL     1      -1.534   4.349  -1.758  1.00  0.00     0.016 A   
ATOM     30  C19 UNL     1      -2.528   4.948  -0.973  1.00  0.00     0.029 A   
ATOM     31  C22 UNL     1      -0.318   5.030  -1.878  1.00  0.00     0.146 A   
ATOM     32  C20 UNL     1      -2.261   6.165  -0.357  1.00  0.00     0.111 A   
ATOM     33  C21 UNL     1      -0.137   6.240  -1.231  1.00  0.00     0.150 A   
ATOM     34  N3  UNL     1      -1.086   6.820  -0.464  1.00  0.00    -0.262 NA  
ATOM     35  F1  UNL     1       0.678   4.509  -2.607  1.00  0.00    -0.205 F   
ENDBRANCH  25  29
ENDBRANCH   3  25
TORSDOF 9
