REMARK SMILES COc1cc(Cn2cc([C@@H]([NH2+]Cc3ccc4c(c3)OCO4)C(C)C)nn2)ccc1F
REMARK SMILES IDX 7 1 8 2 9 3 25 4 26 5 6 7 5 8 3 9 4 10 29 11 28 12 27 13
REMARK SMILES IDX 30 14 2 15 1 16 10 17 11 18 12 21 13 22 14 23 18 24 15 25
REMARK SMILES IDX 17 26 16 27 19 28 21 29 20 30 22 31 23 32 24 33
REMARK H PARENT 8 6 11 19 11 20
ROOT
ATOM     1   N1  UNL     1      -1.634  -1.359   2.180  1.00  0.00    -0.208 N   
ATOM     2   C6  UNL     1      -2.116  -0.402   1.330  1.00  0.00     0.046 A   
ATOM     3   C7  UNL     1      -2.381  -1.093   0.168  1.00  0.00     0.127 A   
ATOM     4   N3  UNL     1      -2.092  -2.420   0.358  1.00  0.00    -0.132 NA  
ATOM     5   N4  UNL     1      -1.629  -2.569   1.588  1.00  0.00    -0.076 NA  
ATOM     6   H7  UNL     1      -2.179   0.641   1.606  1.00  0.00     0.083 HD  
ENDROOT
BRANCH   1   7
ATOM     7   C5  UNL     1      -1.077  -1.179   3.511  1.00  0.00     0.169 C   
BRANCH   7   8
ATOM     8   C4  UNL     1       0.286  -0.532   3.424  1.00  0.00    -0.026 A   
ATOM     9   C2  UNL     1       2.645  -0.670   2.820  1.00  0.00     0.111 A   
ATOM     10  C3  UNL     1       1.393  -1.274   2.965  1.00  0.00     0.042 A   
ATOM     11  C22 UNL     1       2.779   0.685   3.132  1.00  0.00     0.153 A   
ATOM     12  C21 UNL     1       1.701   1.428   3.603  1.00  0.00     0.042 A   
ATOM     13  C20 UNL     1       0.454   0.823   3.751  1.00  0.00     0.008 A   
ATOM     14  F1  UNL     1       3.962   1.298   2.981  1.00  0.00    -0.204 F   
BRANCH   9  15
ATOM     15  O1  UNL     1       3.769  -1.294   2.352  1.00  0.00    -0.346 OA  
ATOM     16  C1  UNL     1       3.789  -2.715   2.420  1.00  0.00     0.203 C   
ENDBRANCH   9  15
ENDBRANCH   7   8
ENDBRANCH   1   7
BRANCH   3  17
ATOM     17  C8  UNL     1      -2.826  -0.611  -1.175  1.00  0.00     0.117 C   
BRANCH  17  18
ATOM     18  N2  UNL     1      -2.210  -1.437  -2.281  1.00  0.00     0.249 N   
ATOM     19  H9  UNL     1      -2.628  -1.197  -3.183  1.00  0.00     0.199 HD  
ATOM     20  H10 UNL     1      -2.446  -2.418  -2.082  1.00  0.00     0.199 HD  
BRANCH  18  21
ATOM     21  C9  UNL     1      -0.720  -1.375  -2.408  1.00  0.00     0.164 C   
BRANCH  21  22
ATOM     22  C10 UNL     1      -0.197   0.011  -2.665  1.00  0.00    -0.002 A   
ATOM     23  C11 UNL     1       0.559   0.679  -1.671  1.00  0.00     0.012 A   
ATOM     24  C15 UNL     1      -0.471   0.662  -3.880  1.00  0.00     0.045 A   
ATOM     25  C12 UNL     1       1.028   1.981  -1.878  1.00  0.00     0.037 A   
ATOM     26  C14 UNL     1       0.005   1.946  -4.050  1.00  0.00     0.109 A   
ATOM     27  C13 UNL     1       0.732   2.587  -3.078  1.00  0.00     0.108 A   
ATOM     28  O2  UNL     1      -0.179   2.715  -5.155  1.00  0.00    -0.316 OA  
ATOM     29  O3  UNL     1       1.099   3.841  -3.449  1.00  0.00    -0.316 OA  
ATOM     30  C16 UNL     1       0.546   3.909  -4.781  1.00  0.00     0.337 C   
ENDBRANCH  21  22
ENDBRANCH  18  21
ENDBRANCH  17  18
BRANCH  17  31
ATOM     31  C17 UNL     1      -4.373  -0.595  -1.312  1.00  0.00     0.037 C   
ATOM     32  C18 UNL     1      -4.824   0.207  -2.539  1.00  0.00     0.014 C   
ATOM     33  C19 UNL     1      -5.017  -1.986  -1.343  1.00  0.00     0.014 C   
ENDBRANCH  17  31
ENDBRANCH   3  17
TORSDOF 8
