REMARK SMILES O=C(c1cccnc1)n1cc([C@@H]([NH2+]Cc2ccc3c(c2)OCO3)C2CCCC2)nn1
REMARK SMILES IDX 12 1 11 2 9 3 10 4 30 5 29 6 2 7 1 8 3 9 4 10 8 11 5 12 7 13
REMARK SMILES IDX 6 14 13 15 14 18 15 19 16 20 20 21 17 22 19 23 18 24 21 25
REMARK SMILES IDX 23 26 22 27 24 28 25 29 28 30 26 31 27 32
REMARK H PARENT 13 16 13 17
ROOT
ATOM     1   C9  UNL     1       1.759  -1.669   1.205  1.00  0.00     0.117 C   
ENDROOT
BRANCH   1   2
ATOM     2   C8  UNL     1       0.850  -1.060   0.185  1.00  0.00     0.128 A   
ATOM     3   N2  UNL     1      -0.323   0.227  -1.139  1.00  0.00    -0.143 N   
ATOM     4   C7  UNL     1       0.840   0.187  -0.392  1.00  0.00     0.139 A   
ATOM     5   N5  UNL     1      -0.945  -0.974  -1.055  1.00  0.00    -0.068 NA  
ATOM     6   N4  UNL     1      -0.249  -1.756  -0.245  1.00  0.00    -0.131 NA  
BRANCH   3   7
ATOM     7   C1  UNL     1      -0.840   1.287  -1.896  1.00  0.00     0.272 C   
ATOM     8   O1  UNL     1      -0.124   2.284  -1.989  1.00  0.00    -0.269 OA  
BRANCH   7   9
ATOM     9   C2  UNL     1      -2.152   1.291  -2.577  1.00  0.00     0.058 A   
ATOM     10  C3  UNL     1      -2.308   1.994  -3.774  1.00  0.00     0.017 A   
ATOM     11  C6  UNL     1      -3.270   0.669  -2.040  1.00  0.00     0.124 A   
ATOM     12  C4  UNL     1      -3.552   2.020  -4.399  1.00  0.00     0.021 A   
ATOM     13  N1  UNL     1      -4.491   0.682  -2.626  1.00  0.00    -0.264 NA  
ATOM     14  C5  UNL     1      -4.605   1.356  -3.792  1.00  0.00     0.111 A   
ENDBRANCH   7   9
ENDBRANCH   3   7
ENDBRANCH   1   2
BRANCH   1  15
ATOM     15  N3  UNL     1       0.953  -2.513   2.176  1.00  0.00     0.249 N   
ATOM     16  H7  UNL     1       1.512  -3.304   2.510  1.00  0.00     0.199 HD  
ATOM     17  H8  UNL     1       0.176  -2.921   1.633  1.00  0.00     0.199 HD  
BRANCH  15  18
ATOM     18  C10 UNL     1       0.376  -1.802   3.359  1.00  0.00     0.164 C   
BRANCH  18  19
ATOM     19  C11 UNL     1      -0.675  -0.789   3.002  1.00  0.00    -0.002 A   
ATOM     20  C12 UNL     1      -1.973  -1.206   2.619  1.00  0.00     0.012 A   
ATOM     21  C16 UNL     1      -0.357   0.579   2.977  1.00  0.00     0.045 A   
ATOM     22  C13 UNL     1      -2.929  -0.281   2.186  1.00  0.00     0.037 A   
ATOM     23  C15 UNL     1      -1.320   1.463   2.538  1.00  0.00     0.109 A   
ATOM     24  C14 UNL     1      -2.567   1.046   2.147  1.00  0.00     0.108 A   
ATOM     25  O2  UNL     1      -1.157   2.806   2.411  1.00  0.00    -0.316 OA  
ATOM     26  O3  UNL     1      -3.345   2.073   1.721  1.00  0.00    -0.316 OA  
ATOM     27  C17 UNL     1      -2.467   3.199   1.943  1.00  0.00     0.337 C   
ENDBRANCH  18  19
ENDBRANCH  15  18
ENDBRANCH   1  15
BRANCH   1  28
ATOM     28  C18 UNL     1       2.880  -2.551   0.624  1.00  0.00     0.043 C   
ATOM     29  C19 UNL     1       2.445  -3.741  -0.234  1.00  0.00     0.010 C   
ATOM     30  C22 UNL     1       3.852  -1.817  -0.300  1.00  0.00     0.010 C   
ATOM     31  C20 UNL     1       3.696  -4.135  -1.021  1.00  0.00     0.001 C   
ATOM     32  C21 UNL     1       4.655  -2.948  -0.930  1.00  0.00     0.001 C   
ENDBRANCH   1  28
TORSDOF 7
