REMARK SMILES Cn1nc(Cn2cc([C@@H]([NH2+]Cc3ccc4c(c3)OCO4)C3CCCC3)nn2)c2ccccc21
REMARK SMILES IDX 6 1 7 2 8 3 26 4 27 5 5 7 4 8 2 9 3 10 33 11 28 12 32 13
REMARK SMILES IDX 29 14 31 15 30 16 1 17 9 18 10 19 11 22 12 23 13 24 17 25
REMARK SMILES IDX 14 26 16 27 15 28 18 29 20 30 19 31 21 32 22 33 25 34 23 35
REMARK SMILES IDX 24 36
REMARK H PARENT 7 6 10 20 10 21
ROOT
ATOM     1   N3  UNL     1       1.289  -0.319  -2.437  1.00  0.00    -0.206 N   
ATOM     2   C4  UNL     1      -0.016  -0.731  -2.381  1.00  0.00     0.046 A   
ATOM     3   C5  UNL     1      -0.673   0.306  -1.764  1.00  0.00     0.127 A   
ATOM     4   N5  UNL     1       0.234   1.292  -1.460  1.00  0.00    -0.132 NA  
ATOM     5   N6  UNL     1       1.427   0.899  -1.873  1.00  0.00    -0.076 NA  
ATOM     6   H6  UNL     1      -0.326  -1.696  -2.760  1.00  0.00     0.083 HD  
ENDROOT
BRANCH   1   7
ATOM     7   C3  UNL     1       2.433  -1.015  -2.999  1.00  0.00     0.192 C   
BRANCH   7   8
ATOM     8   C2  UNL     1       2.704  -2.259  -2.228  1.00  0.00     0.087 A   
ATOM     9   N1  UNL     1       2.682  -4.322  -1.745  1.00  0.00    -0.228 N   
ATOM     10  N2  UNL     1       2.183  -3.429  -2.626  1.00  0.00    -0.184 NA  
ATOM     11  C25 UNL     1       3.437  -3.759  -0.747  1.00  0.00     0.059 A   
ATOM     12  C20 UNL     1       3.477  -2.398  -1.043  1.00  0.00     0.022 A   
ATOM     13  C24 UNL     1       4.091  -4.306   0.365  1.00  0.00     0.026 A   
ATOM     14  C21 UNL     1       4.201  -1.532  -0.204  1.00  0.00     0.012 A   
ATOM     15  C23 UNL     1       4.805  -3.429   1.188  1.00  0.00     0.002 A   
ATOM     16  C22 UNL     1       4.860  -2.064   0.910  1.00  0.00     0.001 A   
ATOM     17  C1  UNL     1       2.377  -5.725  -1.908  1.00  0.00     0.159 C   
ENDBRANCH   7   8
ENDBRANCH   1   7
BRANCH   3  18
ATOM     18  C6  UNL     1      -2.095   0.454  -1.328  1.00  0.00     0.117 C   
BRANCH  18  19
ATOM     19  N4  UNL     1      -2.156   1.271  -0.059  1.00  0.00     0.249 N   
ATOM     20  H8  UNL     1      -3.107   1.605   0.128  1.00  0.00     0.199 HD  
ATOM     21  H9  UNL     1      -1.575   2.108  -0.216  1.00  0.00     0.199 HD  
BRANCH  19  22
ATOM     22  C7  UNL     1      -1.631   0.590   1.157  1.00  0.00     0.164 C   
BRANCH  22  23
ATOM     23  C8  UNL     1      -1.683   1.512   2.342  1.00  0.00    -0.002 A   
ATOM     24  C9  UNL     1      -0.682   2.499   2.517  1.00  0.00     0.012 A   
ATOM     25  C13 UNL     1      -2.744   1.431   3.259  1.00  0.00     0.045 A   
ATOM     26  C10 UNL     1      -0.730   3.389   3.595  1.00  0.00     0.037 A   
ATOM     27  C12 UNL     1      -2.758   2.320   4.314  1.00  0.00     0.109 A   
ATOM     28  C11 UNL     1      -1.781   3.272   4.477  1.00  0.00     0.108 A   
ATOM     29  O1  UNL     1      -3.701   2.371   5.291  1.00  0.00    -0.316 OA  
ATOM     30  O2  UNL     1      -1.987   4.043   5.576  1.00  0.00    -0.316 OA  
ATOM     31  C14 UNL     1      -3.184   3.442   6.115  1.00  0.00     0.337 C   
ENDBRANCH  22  23
ENDBRANCH  19  22
ENDBRANCH  18  19
BRANCH  18  32
ATOM     32  C15 UNL     1      -3.018   1.124  -2.365  1.00  0.00     0.043 C   
ATOM     33  C16 UNL     1      -2.622   2.538  -2.811  1.00  0.00     0.010 C   
ATOM     34  C19 UNL     1      -3.204   0.329  -3.672  1.00  0.00     0.010 C   
ATOM     35  C17 UNL     1      -3.344   2.699  -4.139  1.00  0.00     0.001 C   
ATOM     36  C18 UNL     1      -3.133   1.350  -4.807  1.00  0.00     0.001 C   
ENDBRANCH  18  32
ENDBRANCH   3  18
TORSDOF 7
