REMARK SMILES CC(C)[C@H]([NH2+]Cc1ccc2c(c1)OCO2)c1cn(-c2cccc(S(C)(=O)=O)c2)nn1
REMARK SMILES IDX 16 1 17 2 18 3 29 4 30 5 4 6 2 7 1 8 3 9 5 10 6 13 7 14 8 15
REMARK SMILES IDX 12 16 9 17 11 18 10 19 13 20 15 21 14 22 19 23 20 24 28 25
REMARK SMILES IDX 21 26 23 27 22 28 24 29 25 30 26 31 27 32
REMARK H PARENT 5 11 5 12
ROOT
ATOM     1   C13 UNL     1      -0.782  -0.333  -0.741  1.00  0.00     0.127 A   
ATOM     2   C14 UNL     1       0.009  -0.954  -1.683  1.00  0.00     0.135 A   
ATOM     3   N2  UNL     1       0.771   0.057  -2.236  1.00  0.00    -0.180 N   
ATOM     4   N3  UNL     1       0.466   1.224  -1.611  1.00  0.00    -0.071 NA  
ATOM     5   N4  UNL     1      -0.479   0.999  -0.714  1.00  0.00    -0.131 NA  
ENDROOT
BRANCH   1   6
ATOM     6   C4  UNL     1      -1.827  -0.877   0.185  1.00  0.00     0.117 C   
BRANCH   6   7
ATOM     7   C2  UNL     1      -3.177  -1.123  -0.539  1.00  0.00     0.037 C   
ATOM     8   C1  UNL     1      -3.883   0.161  -0.991  1.00  0.00     0.014 C   
ATOM     9   C3  UNL     1      -4.133  -1.967   0.312  1.00  0.00     0.014 C   
ENDBRANCH   6   7
BRANCH   6  10
ATOM     10  N1  UNL     1      -2.026   0.045   1.358  1.00  0.00     0.249 N   
ATOM     11  H9  UNL     1      -2.045   1.007   0.985  1.00  0.00     0.199 HD  
ATOM     12  H10 UNL     1      -2.931  -0.099   1.815  1.00  0.00     0.199 HD  
BRANCH  10  13
ATOM     13  C5  UNL     1      -0.955   0.000   2.393  1.00  0.00     0.164 C   
BRANCH  13  14
ATOM     14  C6  UNL     1      -1.231   1.003   3.477  1.00  0.00    -0.002 A   
ATOM     15  C7  UNL     1      -1.919   0.618   4.653  1.00  0.00     0.012 A   
ATOM     16  C11 UNL     1      -0.851   2.345   3.304  1.00  0.00     0.045 A   
ATOM     17  C8  UNL     1      -2.215   1.555   5.649  1.00  0.00     0.037 A   
ATOM     18  C10 UNL     1      -1.159   3.242   4.305  1.00  0.00     0.109 A   
ATOM     19  C9  UNL     1      -1.822   2.859   5.444  1.00  0.00     0.108 A   
ATOM     20  O1  UNL     1      -0.865   4.569   4.296  1.00  0.00    -0.316 OA  
ATOM     21  O2  UNL     1      -2.025   3.894   6.299  1.00  0.00    -0.316 OA  
ATOM     22  C12 UNL     1      -1.398   4.976   5.577  1.00  0.00     0.337 C   
ENDBRANCH  13  14
ENDBRANCH  10  13
ENDBRANCH   6  10
ENDBRANCH   1   6
BRANCH   3  23
ATOM     23  C15 UNL     1       1.732  -0.012  -3.276  1.00  0.00     0.069 A   
ATOM     24  C16 UNL     1       2.364   1.161  -3.719  1.00  0.00     0.027 A   
ATOM     25  C21 UNL     1       2.050  -1.235  -3.880  1.00  0.00     0.160 A   
ATOM     26  C17 UNL     1       3.288   1.116  -4.767  1.00  0.00     0.014 A   
ATOM     27  C19 UNL     1       2.987  -1.267  -4.921  1.00  0.00     0.308 A   
ATOM     28  C18 UNL     1       3.598  -0.098  -5.378  1.00  0.00     0.134 A   
BRANCH  27  29
ATOM     29  S1  UNL     1       3.375  -2.818  -5.704  1.00  0.00    -0.239 S   
ATOM     30  C20 UNL     1       5.114  -3.032  -5.425  1.00  0.00     0.674 C   
ATOM     31  O3  UNL     1       2.680  -3.850  -4.954  1.00  0.00    -0.517 OA  
ATOM     32  O4  UNL     1       3.143  -2.636  -7.122  1.00  0.00    -0.517 OA  
ENDBRANCH  27  29
ENDBRANCH   3  23
TORSDOF 7
