REMARK SMILES OC[C@@H](c1ccc(Cl)nc1)n1cc([C@@H]([NH2+]Cc2ccc3c(c2)OCO3)C2CCCC2)nn1
REMARK SMILES IDX 11 1 12 2 13 3 31 4 32 5 3 7 2 8 1 9 4 11 5 12 10 13 6 14
REMARK SMILES IDX 9 15 7 16 8 17 14 18 15 19 16 22 17 23 18 24 22 25 19 26
REMARK SMILES IDX 21 27 20 28 23 29 25 30 24 31 26 32 27 33 30 34 28 35 29 36
REMARK H PARENT 12 6 1 10 15 20 15 21
ROOT
ATOM     1   N2  UNL     1      -1.474  -1.336   2.176  1.00  0.00    -0.202 N   
ATOM     2   C8  UNL     1      -1.742  -0.749   0.968  1.00  0.00     0.046 A   
ATOM     3   C9  UNL     1      -0.519  -0.288   0.538  1.00  0.00     0.127 A   
ATOM     4   N4  UNL     1       0.426  -0.565   1.494  1.00  0.00    -0.132 NA  
ATOM     5   N5  UNL     1      -0.170  -1.195   2.494  1.00  0.00    -0.075 NA  
ATOM     6   H8  UNL     1      -2.735  -0.744   0.538  1.00  0.00     0.083 HD  
ENDROOT
BRANCH   1   7
ATOM     7   C2  UNL     1      -2.366  -2.109   3.044  1.00  0.00     0.157 C   
BRANCH   7   8
ATOM     8   C1  UNL     1      -3.316  -1.182   3.828  1.00  0.00     0.186 C   
BRANCH   8   9
ATOM     9   O1  UNL     1      -4.140  -0.383   2.978  1.00  0.00    -0.394 OA  
ATOM     10  H1  UNL     1      -4.722   0.143   3.560  1.00  0.00     0.210 HD  
ENDBRANCH   8   9
ENDBRANCH   7   8
BRANCH   7  11
ATOM     11  C3  UNL     1      -2.985  -3.259   2.265  1.00  0.00    -0.005 A   
ATOM     12  C4  UNL     1      -4.334  -3.327   1.897  1.00  0.00     0.010 A   
ATOM     13  C7  UNL     1      -2.168  -4.316   1.854  1.00  0.00     0.118 A   
ATOM     14  C5  UNL     1      -4.800  -4.414   1.158  1.00  0.00     0.041 A   
ATOM     15  N1  UNL     1      -2.589  -5.373   1.128  1.00  0.00    -0.244 NA  
ATOM     16  C6  UNL     1      -3.896  -5.399   0.805  1.00  0.00     0.129 A   
ATOM     17  CL1 UNL     1      -4.384  -6.758  -0.116  1.00  0.00    -0.062 Cl  
ENDBRANCH   7  11
ENDBRANCH   1   7
BRANCH   3  18
ATOM     18  C10 UNL     1      -0.119   0.412  -0.721  1.00  0.00     0.117 C   
BRANCH  18  19
ATOM     19  N3  UNL     1       1.217   1.082  -0.540  1.00  0.00     0.249 N   
ATOM     20  H10 UNL     1       1.739   1.160  -1.417  1.00  0.00     0.199 HD  
ATOM     21  H11 UNL     1       1.777   0.462   0.067  1.00  0.00     0.199 HD  
BRANCH  19  22
ATOM     22  C11 UNL     1       1.170   2.411   0.126  1.00  0.00     0.164 C   
BRANCH  22  23
ATOM     23  C12 UNL     1       2.561   2.927   0.366  1.00  0.00    -0.002 A   
ATOM     24  C13 UNL     1       3.216   2.658   1.592  1.00  0.00     0.012 A   
ATOM     25  C17 UNL     1       3.239   3.631  -0.643  1.00  0.00     0.045 A   
ATOM     26  C14 UNL     1       4.525   3.100   1.818  1.00  0.00     0.037 A   
ATOM     27  C16 UNL     1       4.529   4.049  -0.389  1.00  0.00     0.109 A   
ATOM     28  C15 UNL     1       5.154   3.793   0.807  1.00  0.00     0.108 A   
ATOM     29  O2  UNL     1       5.321   4.738  -1.252  1.00  0.00    -0.316 OA  
ATOM     30  O3  UNL     1       6.416   4.293   0.850  1.00  0.00    -0.316 OA  
ATOM     31  C18 UNL     1       6.513   4.910  -0.452  1.00  0.00     0.337 C   
ENDBRANCH  22  23
ENDBRANCH  19  22
ENDBRANCH  18  19
BRANCH  18  32
ATOM     32  C19 UNL     1      -0.080  -0.551  -1.925  1.00  0.00     0.043 C   
ATOM     33  C20 UNL     1       0.043   0.152  -3.284  1.00  0.00     0.010 C   
ATOM     34  C23 UNL     1       1.044  -1.607  -1.916  1.00  0.00     0.010 C   
ATOM     35  C21 UNL     1       0.569  -0.942  -4.196  1.00  0.00     0.001 C   
ATOM     36  C22 UNL     1       1.613  -1.633  -3.334  1.00  0.00     0.001 C   
ENDBRANCH  18  32
ENDBRANCH   3  18
TORSDOF 9
