REMARK SMILES OC[C@H](c1ccc(Cl)nc1)n1cc([C@@H]([NH2+]Cc2ccc3c(c2)OCO3)C2CCCC2)nn1
REMARK SMILES IDX 11 1 12 2 13 3 31 4 32 5 3 7 2 8 1 9 4 11 5 12 10 13 6 14
REMARK SMILES IDX 9 15 7 16 8 17 14 18 15 19 16 22 17 23 18 24 22 25 19 26
REMARK SMILES IDX 21 27 20 28 23 29 25 30 24 31 26 32 27 33 30 34 28 35 29 36
REMARK H PARENT 12 6 1 10 15 20 15 21
ROOT
ATOM     1   N2  UNL     1      -1.723  -2.922  -1.541  1.00  0.00    -0.202 N   
ATOM     2   C8  UNL     1      -1.749  -1.559  -1.685  1.00  0.00     0.046 A   
ATOM     3   C9  UNL     1      -0.455  -1.230  -2.013  1.00  0.00     0.127 A   
ATOM     4   N4  UNL     1       0.300  -2.373  -2.071  1.00  0.00    -0.132 NA  
ATOM     5   N5  UNL     1      -0.480  -3.398  -1.769  1.00  0.00    -0.075 NA  
ATOM     6   H8  UNL     1      -2.649  -0.980  -1.519  1.00  0.00     0.083 HD  
ENDROOT
BRANCH   1   7
ATOM     7   C2  UNL     1      -2.770  -3.808  -1.027  1.00  0.00     0.157 C   
BRANCH   7   8
ATOM     8   C1  UNL     1      -3.900  -3.992  -2.059  1.00  0.00     0.186 C   
BRANCH   8   9
ATOM     9   O1  UNL     1      -4.545  -2.765  -2.400  1.00  0.00    -0.394 OA  
ATOM     10  H1  UNL     1      -5.236  -2.978  -3.055  1.00  0.00     0.210 HD  
ENDBRANCH   8   9
ENDBRANCH   7   8
BRANCH   7  11
ATOM     11  C3  UNL     1      -3.152  -3.376   0.380  1.00  0.00    -0.005 A   
ATOM     12  C4  UNL     1      -4.390  -2.823   0.730  1.00  0.00     0.010 A   
ATOM     13  C7  UNL     1      -2.203  -3.487   1.402  1.00  0.00     0.118 A   
ATOM     14  C5  UNL     1      -4.622  -2.409   2.042  1.00  0.00     0.041 A   
ATOM     15  N1  UNL     1      -2.389  -3.070   2.671  1.00  0.00    -0.244 NA  
ATOM     16  C6  UNL     1      -3.599  -2.551   2.961  1.00  0.00     0.129 A   
ATOM     17  CL1 UNL     1      -3.785  -2.030   4.581  1.00  0.00    -0.062 Cl  
ENDBRANCH   7  11
ENDBRANCH   1   7
BRANCH   3  18
ATOM     18  C10 UNL     1       0.193   0.101  -2.215  1.00  0.00     0.117 C   
BRANCH  18  19
ATOM     19  N3  UNL     1       1.597   0.081  -1.659  1.00  0.00     0.249 N   
ATOM     20  H10 UNL     1       2.135   0.886  -1.989  1.00  0.00     0.199 HD  
ATOM     21  H11 UNL     1       2.046  -0.764  -2.038  1.00  0.00     0.199 HD  
BRANCH  19  22
ATOM     22  C11 UNL     1       1.711   0.000  -0.169  1.00  0.00     0.164 C   
BRANCH  22  23
ATOM     23  C12 UNL     1       1.192   1.228   0.526  1.00  0.00    -0.002 A   
ATOM     24  C13 UNL     1      -0.018   1.175   1.260  1.00  0.00     0.012 A   
ATOM     25  C17 UNL     1       1.891   2.444   0.432  1.00  0.00     0.045 A   
ATOM     26  C14 UNL     1      -0.532   2.319   1.881  1.00  0.00     0.037 A   
ATOM     27  C16 UNL     1       1.356   3.552   1.056  1.00  0.00     0.109 A   
ATOM     28  C15 UNL     1       0.178   3.492   1.759  1.00  0.00     0.108 A   
ATOM     29  O2  UNL     1       1.901   4.795   1.060  1.00  0.00    -0.316 OA  
ATOM     30  O3  UNL     1      -0.167   4.692   2.294  1.00  0.00    -0.316 OA  
ATOM     31  C18 UNL     1       0.936   5.516   1.860  1.00  0.00     0.337 C   
ENDBRANCH  22  23
ENDBRANCH  19  22
ENDBRANCH  18  19
BRANCH  18  32
ATOM     32  C19 UNL     1       0.195   0.512  -3.701  1.00  0.00     0.043 C   
ATOM     33  C20 UNL     1       1.148  -0.248  -4.625  1.00  0.00     0.010 C   
ATOM     34  C23 UNL     1       0.583   1.972  -3.958  1.00  0.00     0.010 C   
ATOM     35  C21 UNL     1       1.122   0.584  -5.902  1.00  0.00     0.001 C   
ATOM     36  C22 UNL     1       0.942   2.030  -5.443  1.00  0.00     0.001 C   
ENDBRANCH  18  32
ENDBRANCH   3  18
TORSDOF 9
