REMARK SMILES CC(C)C[C@H]([NH2+]Cc1ccc2c(c1)OCO2)c1cn(Cc2cnccc2Cl)nn1
REMARK SMILES IDX 17 1 18 2 19 3 28 4 29 5 5 7 4 8 2 9 1 10 3 11 6 12 7 15
REMARK SMILES IDX 8 16 9 17 13 18 10 19 12 20 11 21 14 22 16 23 15 24 20 25
REMARK SMILES IDX 21 26 22 27 26 28 23 29 25 30 24 31 27 32
REMARK H PARENT 18 6 6 13 6 14
ROOT
ATOM     1   C14 UNL     1       1.623   0.757  -0.028  1.00  0.00     0.127 A   
ATOM     2   C15 UNL     1       0.887   1.193  -1.108  1.00  0.00     0.046 A   
ATOM     3   N2  UNL     1       1.720   1.003  -2.174  1.00  0.00    -0.208 N   
ATOM     4   N4  UNL     1       2.907   0.508  -1.772  1.00  0.00    -0.076 NA  
ATOM     5   N5  UNL     1       2.864   0.365  -0.458  1.00  0.00    -0.132 NA  
ATOM     6   H20 UNL     1      -0.124   1.561  -1.215  1.00  0.00     0.083 HD  
ENDROOT
BRANCH   1   7
ATOM     7   C5  UNL     1       1.242   0.580   1.401  1.00  0.00     0.114 C   
BRANCH   7   8
ATOM     8   C4  UNL     1       1.812   1.686   2.310  1.00  0.00     0.064 C   
BRANCH   8   9
ATOM     9   C2  UNL     1       1.303   3.112   2.008  1.00  0.00    -0.012 C   
ATOM     10  C1  UNL     1      -0.213   3.236   2.160  1.00  0.00     0.007 C   
ATOM     11  C3  UNL     1       1.997   4.114   2.935  1.00  0.00     0.007 C   
ENDBRANCH   8   9
ENDBRANCH   7   8
BRANCH   7  12
ATOM     12  N1  UNL     1       1.764  -0.740   1.941  1.00  0.00     0.249 N   
ATOM     13  H11 UNL     1       2.790  -0.703   1.871  1.00  0.00     0.199 HD  
ATOM     14  H12 UNL     1       1.529  -0.820   2.935  1.00  0.00     0.199 HD  
BRANCH  12  15
ATOM     15  C6  UNL     1       1.328  -1.985   1.231  1.00  0.00     0.164 C   
BRANCH  15  16
ATOM     16  C7  UNL     1      -0.163  -2.117   1.089  1.00  0.00    -0.002 A   
ATOM     17  C8  UNL     1      -0.758  -2.058  -0.196  1.00  0.00     0.012 A   
ATOM     18  C12 UNL     1      -0.978  -2.274   2.222  1.00  0.00     0.045 A   
ATOM     19  C9  UNL     1      -2.145  -2.137  -0.351  1.00  0.00     0.037 A   
ATOM     20  C11 UNL     1      -2.343  -2.349   2.033  1.00  0.00     0.109 A   
ATOM     21  C10 UNL     1      -2.910  -2.280   0.784  1.00  0.00     0.108 A   
ATOM     22  O1  UNL     1      -3.269  -2.489   3.017  1.00  0.00    -0.316 OA  
ATOM     23  O2  UNL     1      -4.265  -2.370   0.825  1.00  0.00    -0.316 OA  
ATOM     24  C13 UNL     1      -4.489  -2.536   2.241  1.00  0.00     0.337 C   
ENDBRANCH  15  16
ENDBRANCH  12  15
ENDBRANCH   7  12
ENDBRANCH   1   7
BRANCH   3  25
ATOM     25  C16 UNL     1       1.423   1.152  -3.589  1.00  0.00     0.172 C   
BRANCH  25  26
ATOM     26  C17 UNL     1       0.689  -0.059  -4.093  1.00  0.00     0.008 A   
ATOM     27  C18 UNL     1       1.403  -1.216  -4.386  1.00  0.00     0.118 A   
ATOM     28  C21 UNL     1      -0.700  -0.132  -4.240  1.00  0.00     0.048 A   
ATOM     29  N3  UNL     1       0.840  -2.374  -4.790  1.00  0.00    -0.264 NA  
ATOM     30  C20 UNL     1      -1.306  -1.306  -4.680  1.00  0.00     0.041 A   
ATOM     31  C19 UNL     1      -0.499  -2.393  -4.944  1.00  0.00     0.112 A   
ATOM     32  CL1 UNL     1      -1.726   1.204  -3.865  1.00  0.00    -0.084 Cl  
ENDBRANCH  25  26
ENDBRANCH   3  25
TORSDOF 8
