REMARK SMILES CC(C)(C)[C@H]([NH2+]Cc1ccc2c(c1)OCO2)c1cn(Cc2ccccc2CN)nn1
REMARK SMILES IDX 17 1 18 2 19 3 29 4 30 5 5 7 2 8 1 9 3 10 4 11 6 12 7 15
REMARK SMILES IDX 8 16 9 17 13 18 10 19 12 20 11 21 14 22 16 23 15 24 20 25
REMARK SMILES IDX 21 26 22 27 26 28 23 29 25 30 24 31 27 32 28 33
REMARK H PARENT 18 6 6 13 6 14 28 34 28 35
ROOT
ATOM     1   C14 UNL     1       0.937   0.626  -0.187  1.00  0.00     0.127 A   
ATOM     2   C15 UNL     1       1.195   0.682   1.164  1.00  0.00     0.046 A   
ATOM     3   N2  UNL     1       0.213   1.491   1.660  1.00  0.00    -0.208 N   
ATOM     4   N4  UNL     1      -0.587   1.932   0.666  1.00  0.00    -0.076 NA  
ATOM     5   N5  UNL     1      -0.157   1.401  -0.467  1.00  0.00    -0.132 NA  
ATOM     6   H20 UNL     1       1.927   0.213   1.805  1.00  0.00     0.083 HD  
ENDROOT
BRANCH   1   7
ATOM     7   C5  UNL     1       1.553  -0.200  -1.274  1.00  0.00     0.120 C   
BRANCH   7   8
ATOM     8   C2  UNL     1       2.614   0.556  -2.142  1.00  0.00     0.010 C   
ATOM     9   C1  UNL     1       1.984   1.634  -3.045  1.00  0.00     0.017 C   
ATOM     10  C3  UNL     1       3.669   1.234  -1.238  1.00  0.00     0.017 C   
ATOM     11  C4  UNL     1       3.371  -0.447  -3.041  1.00  0.00     0.017 C   
ENDBRANCH   7   8
BRANCH   7  12
ATOM     12  N1  UNL     1       0.442  -0.736  -2.149  1.00  0.00     0.250 N   
ATOM     13  H11 UNL     1      -0.171   0.066  -2.365  1.00  0.00     0.199 HD  
ATOM     14  H12 UNL     1       0.782  -1.083  -3.051  1.00  0.00     0.199 HD  
BRANCH  12  15
ATOM     15  C6  UNL     1      -0.418  -1.778  -1.519  1.00  0.00     0.164 C   
BRANCH  15  16
ATOM     16  C7  UNL     1      -1.591  -2.096  -2.404  1.00  0.00    -0.002 A   
ATOM     17  C8  UNL     1      -1.552  -3.205  -3.282  1.00  0.00     0.012 A   
ATOM     18  C12 UNL     1      -2.719  -1.256  -2.396  1.00  0.00     0.045 A   
ATOM     19  C9  UNL     1      -2.630  -3.484  -4.132  1.00  0.00     0.037 A   
ATOM     20  C11 UNL     1      -3.763  -1.561  -3.246  1.00  0.00     0.109 A   
ATOM     21  C10 UNL     1      -3.720  -2.643  -4.090  1.00  0.00     0.108 A   
ATOM     22  O1  UNL     1      -4.922  -0.861  -3.358  1.00  0.00    -0.316 OA  
ATOM     23  O2  UNL     1      -4.847  -2.760  -4.840  1.00  0.00    -0.316 OA  
ATOM     24  C13 UNL     1      -5.628  -1.653  -4.339  1.00  0.00     0.337 C   
ENDBRANCH  15  16
ENDBRANCH  12  15
ENDBRANCH   7  12
ENDBRANCH   1   7
BRANCH   3  25
ATOM     25  C16 UNL     1      -0.062   1.836   3.048  1.00  0.00     0.169 C   
BRANCH  25  26
ATOM     26  C17 UNL     1      -0.706   0.674   3.781  1.00  0.00    -0.024 A   
ATOM     27  C18 UNL     1      -1.984   0.247   3.366  1.00  0.00     0.006 A   
ATOM     28  C22 UNL     1      -0.080   0.006   4.859  1.00  0.00    -0.030 A   
ATOM     29  C19 UNL     1      -2.625  -0.827   3.983  1.00  0.00     0.000 A   
ATOM     30  C21 UNL     1      -0.741  -1.083   5.461  1.00  0.00     0.005 A   
ATOM     31  C20 UNL     1      -2.002  -1.492   5.028  1.00  0.00     0.000 A   
BRANCH  28  32
ATOM     32  C23 UNL     1       1.265   0.414   5.413  1.00  0.00     0.113 C   
BRANCH  32  33
ATOM     33  N3  UNL     1       2.345   0.084   4.487  1.00  0.00    -0.326 NA  
ATOM     34  H29 UNL     1       3.228   0.354   4.924  1.00  0.00     0.119 HD  
ATOM     35  H30 UNL     1       2.390  -0.933   4.406  1.00  0.00     0.119 HD  
ENDBRANCH  32  33
ENDBRANCH  28  32
ENDBRANCH  25  26
ENDBRANCH   3  25
TORSDOF 9
