REMARK SMILES Cc1ccc2nc(Cn3cc([C@@H]([NH2+]Cc4ccc5c(c4)OCO5)C(C)(C)C)nn3)cn2c1
REMARK SMILES IDX 9 1 10 2 11 3 28 4 29 5 8 7 7 8 2 9 3 10 32 11 4 12 31 13
REMARK SMILES IDX 5 14 30 15 6 16 1 17 12 18 13 19 14 22 15 23 16 24 20 25
REMARK SMILES IDX 17 26 19 27 18 28 21 29 23 30 22 31 24 32 25 33 26 34 27 35
REMARK H PARENT 10 6 13 20 13 21
ROOT
ATOM     1   N2  UNL     1       2.436  -0.493  -2.263  1.00  0.00    -0.206 N   
ATOM     2   C8  UNL     1       1.125  -0.841  -2.442  1.00  0.00     0.046 A   
ATOM     3   C9  UNL     1       0.502   0.352  -2.729  1.00  0.00     0.127 A   
ATOM     4   N4  UNL     1       1.438   1.353  -2.768  1.00  0.00    -0.132 NA  
ATOM     5   N5  UNL     1       2.619   0.823  -2.492  1.00  0.00    -0.076 NA  
ATOM     6   H8  UNL     1       0.769  -1.848  -2.272  1.00  0.00     0.083 HD  
ENDROOT
BRANCH   1   7
ATOM     7   C7  UNL     1       3.528  -1.337  -1.812  1.00  0.00     0.191 C   
BRANCH   7   8
ATOM     8   C6  UNL     1       3.521  -1.425  -0.324  1.00  0.00     0.077 A   
ATOM     9   C2  UNL     1       3.962  -1.577   4.170  1.00  0.00    -0.036 A   
ATOM     10  C3  UNL     1       2.591  -2.066   4.019  1.00  0.00     0.008 A   
ATOM     11  C24 UNL     1       4.650  -1.256   3.057  1.00  0.00     0.085 A   
ATOM     12  C4  UNL     1       2.011  -2.193   2.809  1.00  0.00     0.045 A   
ATOM     13  N6  UNL     1       4.040  -1.391   1.813  1.00  0.00    -0.266 N   
ATOM     14  C5  UNL     1       2.737  -1.843   1.637  1.00  0.00     0.128 A   
ATOM     15  C23 UNL     1       4.538  -1.128   0.562  1.00  0.00     0.107 A   
ATOM     16  N1  UNL     1       2.402  -1.863   0.362  1.00  0.00    -0.234 NA  
ATOM     17  C1  UNL     1       4.521  -1.471   5.554  1.00  0.00     0.046 C   
ENDBRANCH   7   8
ENDBRANCH   1   7
BRANCH   3  18
ATOM     18  C10 UNL     1      -0.952   0.685  -2.836  1.00  0.00     0.120 C   
BRANCH  18  19
ATOM     19  N3  UNL     1      -1.240   1.918  -2.001  1.00  0.00     0.250 N   
ATOM     20  H10 UNL     1      -0.611   2.655  -2.344  1.00  0.00     0.199 HD  
ATOM     21  H11 UNL     1      -2.200   2.237  -2.141  1.00  0.00     0.199 HD  
BRANCH  19  22
ATOM     22  C11 UNL     1      -0.989   1.797  -0.528  1.00  0.00     0.164 C   
BRANCH  22  23
ATOM     23  C12 UNL     1      -1.836   0.749   0.137  1.00  0.00    -0.002 A   
ATOM     24  C13 UNL     1      -1.248  -0.458   0.589  1.00  0.00     0.012 A   
ATOM     25  C17 UNL     1      -3.220   0.942   0.287  1.00  0.00     0.045 A   
ATOM     26  C14 UNL     1      -2.025  -1.463   1.173  1.00  0.00     0.037 A   
ATOM     27  C16 UNL     1      -3.957  -0.070   0.869  1.00  0.00     0.109 A   
ATOM     28  C15 UNL     1      -3.377  -1.238   1.297  1.00  0.00     0.108 A   
ATOM     29  O1  UNL     1      -5.298  -0.047   1.080  1.00  0.00    -0.316 OA  
ATOM     30  O2  UNL     1      -4.281  -2.098   1.835  1.00  0.00    -0.316 OA  
ATOM     31  C18 UNL     1      -5.497  -1.328   1.720  1.00  0.00     0.337 C   
ENDBRANCH  22  23
ENDBRANCH  19  22
ENDBRANCH  18  19
BRANCH  18  32
ATOM     32  C19 UNL     1      -1.464   0.883  -4.306  1.00  0.00     0.010 C   
ATOM     33  C20 UNL     1      -1.158  -0.380  -5.144  1.00  0.00     0.017 C   
ATOM     34  C21 UNL     1      -0.827   2.096  -5.012  1.00  0.00     0.017 C   
ATOM     35  C22 UNL     1      -2.999   1.072  -4.318  1.00  0.00     0.017 C   
ENDBRANCH  18  32
ENDBRANCH   3  18
TORSDOF 7
