REMARK SMILES COc1ccc(Cn2cc([C@@H]([NH2+]Cc3ccc4c(c3)OCO4)C3CCCC3)nn2)cn1
REMARK SMILES IDX 8 1 9 2 10 3 28 4 29 5 7 7 6 8 3 9 4 10 31 11 5 12 30 13
REMARK SMILES IDX 2 14 1 15 11 16 12 17 13 20 14 21 15 22 19 23 16 24 18 25
REMARK SMILES IDX 17 26 20 27 22 28 21 29 23 30 24 31 27 32 25 33 26 34
REMARK H PARENT 9 6 12 18 12 19
ROOT
ATOM     1   N1  UNL     1       0.880  -2.780   1.568  1.00  0.00    -0.208 N   
ATOM     2   C7  UNL     1       1.683  -1.673   1.618  1.00  0.00     0.046 A   
ATOM     3   C8  UNL     1       0.876  -0.654   1.165  1.00  0.00     0.127 A   
ATOM     4   N3  UNL     1      -0.367  -1.161   0.878  1.00  0.00    -0.132 NA  
ATOM     5   N4  UNL     1      -0.348  -2.462   1.116  1.00  0.00    -0.076 NA  
ATOM     6   H8  UNL     1       2.714  -1.720   1.944  1.00  0.00     0.083 HD  
ENDROOT
BRANCH   1   7
ATOM     7   C6  UNL     1       1.214  -4.155   1.903  1.00  0.00     0.171 C   
BRANCH   7   8
ATOM     8   C5  UNL     1       2.137  -4.748   0.876  1.00  0.00    -0.010 A   
ATOM     9   C2  UNL     1       3.759  -5.786  -1.079  1.00  0.00     0.166 A   
ATOM     10  C3  UNL     1       4.293  -5.573   0.181  1.00  0.00     0.055 A   
ATOM     11  N5  UNL     1       2.479  -5.505  -1.404  1.00  0.00    -0.232 NA  
ATOM     12  C4  UNL     1       3.470  -5.045   1.173  1.00  0.00     0.011 A   
ATOM     13  C23 UNL     1       1.697  -5.007  -0.421  1.00  0.00     0.119 A   
BRANCH   9  14
ATOM     14  O1  UNL     1       4.619  -6.297  -2.029  1.00  0.00    -0.333 OA  
ATOM     15  C1  UNL     1       3.977  -6.597  -3.264  1.00  0.00     0.205 C   
ENDBRANCH   9  14
ENDBRANCH   7   8
ENDBRANCH   1   7
BRANCH   3  16
ATOM     16  C9  UNL     1       1.149   0.799   0.938  1.00  0.00     0.117 C   
BRANCH  16  17
ATOM     17  N2  UNL     1       0.127   1.378  -0.003  1.00  0.00     0.249 N   
ATOM     18  H10 UNL     1       0.016   2.389   0.111  1.00  0.00     0.199 HD  
ATOM     19  H11 UNL     1      -0.781   0.962   0.254  1.00  0.00     0.199 HD  
BRANCH  17  20
ATOM     20  C10 UNL     1       0.342   1.075  -1.445  1.00  0.00     0.164 C   
BRANCH  20  21
ATOM     21  C11 UNL     1      -0.801   1.614  -2.259  1.00  0.00    -0.002 A   
ATOM     22  C12 UNL     1      -1.895   0.778  -2.585  1.00  0.00     0.012 A   
ATOM     23  C16 UNL     1      -0.825   2.968  -2.637  1.00  0.00     0.045 A   
ATOM     24  C13 UNL     1      -2.997   1.279  -3.286  1.00  0.00     0.037 A   
ATOM     25  C15 UNL     1      -1.930   3.432  -3.319  1.00  0.00     0.109 A   
ATOM     26  C14 UNL     1      -2.985   2.611  -3.635  1.00  0.00     0.108 A   
ATOM     27  O2  UNL     1      -2.120   4.711  -3.737  1.00  0.00    -0.316 OA  
ATOM     28  O3  UNL     1      -3.970   3.266  -4.301  1.00  0.00    -0.316 OA  
ATOM     29  C17 UNL     1      -3.421   4.602  -4.361  1.00  0.00     0.337 C   
ENDBRANCH  20  21
ENDBRANCH  17  20
ENDBRANCH  16  17
BRANCH  16  30
ATOM     30  C18 UNL     1       1.178   1.588   2.262  1.00  0.00     0.043 C   
ATOM     31  C19 UNL     1      -0.161   1.710   3.013  1.00  0.00     0.010 C   
ATOM     32  C22 UNL     1       1.673   3.032   2.138  1.00  0.00     0.010 C   
ATOM     33  C20 UNL     1      -0.146   3.084   3.689  1.00  0.00     0.001 C   
ATOM     34  C21 UNL     1       1.250   3.645   3.464  1.00  0.00     0.001 C   
ENDBRANCH  16  30
ENDBRANCH   3  16
TORSDOF 8
