REMARK SMILES COc1ccccc1Cn1cc([C@H](CC(C)C)[NH2+]Cc2ccc3c(c2)OCO3)nn1
REMARK SMILES IDX 10 1 11 2 12 3 29 4 30 5 9 7 8 8 3 9 4 10 5 11 7 12 6 13
REMARK SMILES IDX 2 14 1 15 13 16 14 17 15 18 16 19 17 20 18 21 19 24 20 25
REMARK SMILES IDX 21 26 25 27 22 28 24 29 23 30 26 31 28 32 27 33
REMARK H PARENT 11 6 18 22 18 23
ROOT
ATOM     1   N1  UNL     1      -2.078   1.042   1.471  1.00  0.00    -0.208 N   
ATOM     2   C9  UNL     1      -1.313  -0.089   1.537  1.00  0.00     0.046 A   
ATOM     3   C10 UNL     1      -0.295   0.249   2.398  1.00  0.00     0.127 A   
ATOM     4   N3  UNL     1      -0.491   1.526   2.854  1.00  0.00    -0.132 NA  
ATOM     5   N4  UNL     1      -1.588   2.000   2.285  1.00  0.00    -0.076 NA  
ATOM     6   H10 UNL     1      -1.531  -0.968   0.946  1.00  0.00     0.083 HD  
ENDROOT
BRANCH   1   7
ATOM     7   C8  UNL     1      -3.243   1.291   0.641  1.00  0.00     0.172 C   
BRANCH   7   8
ATOM     8   C7  UNL     1      -2.849   1.966  -0.651  1.00  0.00     0.002 A   
ATOM     9   C2  UNL     1      -2.374   1.226  -1.752  1.00  0.00     0.079 A   
ATOM     10  C3  UNL     1      -2.007   1.894  -2.925  1.00  0.00     0.034 A   
ATOM     11  C4  UNL     1      -2.111   3.284  -3.010  1.00  0.00     0.003 A   
ATOM     12  C6  UNL     1      -2.939   3.365  -0.750  1.00  0.00     0.008 A   
ATOM     13  C5  UNL     1      -2.575   4.019  -1.925  1.00  0.00     0.001 A   
BRANCH   9  14
ATOM     14  O1  UNL     1      -2.285  -0.130  -1.570  1.00  0.00    -0.349 OA  
ATOM     15  C1  UNL     1      -2.060  -0.921  -2.734  1.00  0.00     0.203 C   
ENDBRANCH   9  14
ENDBRANCH   7   8
ENDBRANCH   1   7
BRANCH   3  16
ATOM     16  C11 UNL     1       0.943  -0.485   2.780  1.00  0.00     0.114 C   
BRANCH  16  17
ATOM     17  C12 UNL     1       0.912  -0.992   4.234  1.00  0.00     0.064 C   
BRANCH  17  18
ATOM     18  C13 UNL     1      -0.195  -2.024   4.543  1.00  0.00    -0.012 C   
ATOM     19  C14 UNL     1      -0.061  -3.292   3.699  1.00  0.00     0.007 C   
ATOM     20  C15 UNL     1      -0.159  -2.388   6.030  1.00  0.00     0.007 C   
ENDBRANCH  17  18
ENDBRANCH  16  17
BRANCH  16  21
ATOM     21  N2  UNL     1       2.143   0.436   2.659  1.00  0.00     0.249 N   
ATOM     22  H21 UNL     1       1.938   1.253   3.252  1.00  0.00     0.199 HD  
ATOM     23  H22 UNL     1       2.974  -0.022   3.042  1.00  0.00     0.199 HD  
BRANCH  21  24
ATOM     24  C16 UNL     1       2.447   0.955   1.290  1.00  0.00     0.164 C   
BRANCH  24  25
ATOM     25  C17 UNL     1       2.783  -0.131   0.305  1.00  0.00    -0.002 A   
ATOM     26  C18 UNL     1       4.019  -0.814   0.386  1.00  0.00     0.012 A   
ATOM     27  C22 UNL     1       1.852  -0.497  -0.684  1.00  0.00     0.045 A   
ATOM     28  C19 UNL     1       4.324  -1.854  -0.499  1.00  0.00     0.037 A   
ATOM     29  C21 UNL     1       2.182  -1.528  -1.538  1.00  0.00     0.109 A   
ATOM     30  C20 UNL     1       3.383  -2.188  -1.448  1.00  0.00     0.108 A   
ATOM     31  O2  UNL     1       1.398  -2.014  -2.536  1.00  0.00    -0.316 OA  
ATOM     32  O3  UNL     1       3.508  -3.169  -2.379  1.00  0.00    -0.316 OA  
ATOM     33  C23 UNL     1       2.259  -3.036  -3.089  1.00  0.00     0.337 C   
ENDBRANCH  24  25
ENDBRANCH  21  24
ENDBRANCH  16  21
ENDBRANCH   3  16
TORSDOF 9
