REMARK SMILES Cc1ccccc1[C@H](O)Cn1cc([C@@H]([NH2+]Cc2ccc3c(c2)OCO3)C2CCCCC2)nn1
REMARK SMILES IDX 11 1 12 2 13 3 32 4 33 5 10 7 8 8 7 9 2 10 3 11 4 12 6 13
REMARK SMILES IDX 5 14 1 15 9 16 14 18 15 19 16 22 17 23 18 24 22 25 19 26
REMARK SMILES IDX 21 27 20 28 23 29 25 30 24 31 26 32 27 33 31 34 28 35 30 36
REMARK SMILES IDX 29 37
REMARK H PARENT 12 6 9 17 15 20 15 21
ROOT
ATOM     1   N1  UNL     1       2.570  -1.135  -0.882  1.00  0.00    -0.209 N   
ATOM     2   C10 UNL     1       1.288  -1.553  -0.643  1.00  0.00     0.045 A   
ATOM     3   C11 UNL     1       0.519  -0.661  -1.360  1.00  0.00     0.127 A   
ATOM     4   N3  UNL     1       1.340   0.178  -2.068  1.00  0.00    -0.132 NA  
ATOM     5   N4  UNL     1       2.591  -0.116  -1.762  1.00  0.00    -0.076 NA  
ATOM     6   H12 UNL     1       1.053  -2.354   0.042  1.00  0.00     0.083 HD  
ENDROOT
BRANCH   1   7
ATOM     7   C9  UNL     1       3.797  -1.597  -0.277  1.00  0.00     0.170 C   
BRANCH   7   8
ATOM     8   C8  UNL     1       3.804  -1.505   1.259  1.00  0.00     0.164 C   
BRANCH   8   9
ATOM     9   C7  UNL     1       3.408  -0.149   1.832  1.00  0.00    -0.015 A   
ATOM     10  C2  UNL     1       2.418  -0.012   2.833  1.00  0.00    -0.045 A   
ATOM     11  C3  UNL     1       2.086   1.271   3.302  1.00  0.00     0.004 A   
ATOM     12  C4  UNL     1       2.728   2.405   2.811  1.00  0.00     0.000 A   
ATOM     13  C6  UNL     1       4.061   1.009   1.366  1.00  0.00     0.007 A   
ATOM     14  C5  UNL     1       3.722   2.273   1.850  1.00  0.00     0.000 A   
ATOM     15  C1  UNL     1       1.705  -1.195   3.434  1.00  0.00     0.045 C   
ENDBRANCH   8   9
BRANCH   8  16
ATOM     16  O1  UNL     1       5.107  -1.858   1.729  1.00  0.00    -0.387 OA  
ATOM     17  H9  UNL     1       5.298  -1.343   2.537  1.00  0.00     0.211 HD  
ENDBRANCH   8  16
ENDBRANCH   7   8
ENDBRANCH   1   7
BRANCH   3  18
ATOM     18  C12 UNL     1      -0.959  -0.445  -1.405  1.00  0.00     0.117 C   
BRANCH  18  19
ATOM     19  N2  UNL     1      -1.259   1.007  -1.696  1.00  0.00     0.249 N   
ATOM     20  H14 UNL     1      -0.676   1.255  -2.508  1.00  0.00     0.199 HD  
ATOM     21  H15 UNL     1      -2.238   1.139  -1.967  1.00  0.00     0.199 HD  
BRANCH  19  22
ATOM     22  C13 UNL     1      -0.906   1.976  -0.614  1.00  0.00     0.164 C   
BRANCH  22  23
ATOM     23  C14 UNL     1      -1.878   1.951   0.533  1.00  0.00    -0.002 A   
ATOM     24  C15 UNL     1      -3.134   2.596   0.420  1.00  0.00     0.012 A   
ATOM     25  C19 UNL     1      -1.552   1.270   1.720  1.00  0.00     0.045 A   
ATOM     26  C16 UNL     1      -4.045   2.578   1.481  1.00  0.00     0.037 A   
ATOM     27  C18 UNL     1      -2.478   1.263   2.742  1.00  0.00     0.109 A   
ATOM     28  C17 UNL     1      -3.687   1.904   2.629  1.00  0.00     0.108 A   
ATOM     29  O2  UNL     1      -2.320   0.658   3.951  1.00  0.00    -0.316 OA  
ATOM     30  O3  UNL     1      -4.438   1.792   3.754  1.00  0.00    -0.316 OA  
ATOM     31  C20 UNL     1      -3.599   0.946   4.565  1.00  0.00     0.337 C   
ENDBRANCH  22  23
ENDBRANCH  19  22
ENDBRANCH  18  19
BRANCH  18  32
ATOM     32  C21 UNL     1      -1.655  -1.370  -2.438  1.00  0.00     0.043 C   
ATOM     33  C22 UNL     1      -3.182  -1.413  -2.227  1.00  0.00     0.010 C   
ATOM     34  C26 UNL     1      -1.338  -1.032  -3.908  1.00  0.00     0.010 C   
ATOM     35  C23 UNL     1      -3.850  -2.403  -3.184  1.00  0.00     0.001 C   
ATOM     36  C25 UNL     1      -2.009  -2.016  -4.866  1.00  0.00     0.001 C   
ATOM     37  C24 UNL     1      -3.516  -2.090  -4.639  1.00  0.00     0.000 C   
ENDBRANCH  18  32
ENDBRANCH   3  18
TORSDOF 9
