REMARK SMILES Cc1ccccc1[C@@H](O)Cn1cc([C@@H]([NH2+]Cc2ccc3c(c2)OCO3)C2CCCCC2)nn1
REMARK SMILES IDX 11 1 12 2 13 3 32 4 33 5 10 7 8 8 7 9 2 10 3 11 4 12 6 13
REMARK SMILES IDX 5 14 1 15 9 16 14 18 15 19 16 22 17 23 18 24 22 25 19 26
REMARK SMILES IDX 21 27 20 28 23 29 25 30 24 31 26 32 27 33 31 34 28 35 30 36
REMARK SMILES IDX 29 37
REMARK H PARENT 12 6 9 17 15 20 15 21
ROOT
ATOM     1   N1  UNL     1       0.219   1.286   1.829  1.00  0.00    -0.209 N   
ATOM     2   C10 UNL     1       1.016   1.950   0.939  1.00  0.00     0.045 A   
ATOM     3   C11 UNL     1       0.942   1.188  -0.206  1.00  0.00     0.127 A   
ATOM     4   N3  UNL     1       0.147   0.098   0.032  1.00  0.00    -0.132 NA  
ATOM     5   N4  UNL     1      -0.279   0.164   1.284  1.00  0.00    -0.076 NA  
ATOM     6   H12 UNL     1       1.525   2.867   1.198  1.00  0.00     0.083 HD  
ENDROOT
BRANCH   1   7
ATOM     7   C9  UNL     1      -0.051   1.614   3.216  1.00  0.00     0.170 C   
BRANCH   7   8
ATOM     8   C8  UNL     1      -1.188   2.630   3.343  1.00  0.00     0.164 C   
BRANCH   8   9
ATOM     9   C7  UNL     1      -1.714   2.673   4.768  1.00  0.00    -0.015 A   
ATOM     10  C2  UNL     1      -2.903   2.010   5.144  1.00  0.00    -0.045 A   
ATOM     11  C3  UNL     1      -3.329   2.072   6.482  1.00  0.00     0.004 A   
ATOM     12  C4  UNL     1      -2.586   2.758   7.443  1.00  0.00     0.000 A   
ATOM     13  C6  UNL     1      -0.971   3.350   5.758  1.00  0.00     0.007 A   
ATOM     14  C5  UNL     1      -1.405   3.393   7.082  1.00  0.00     0.000 A   
ATOM     15  C1  UNL     1      -3.751   1.251   4.158  1.00  0.00     0.045 C   
ENDBRANCH   8   9
BRANCH   8  16
ATOM     16  O1  UNL     1      -0.713   3.929   2.959  1.00  0.00    -0.387 OA  
ATOM     17  H9  UNL     1      -1.328   4.580   3.354  1.00  0.00     0.211 HD  
ENDBRANCH   8  16
ENDBRANCH   7   8
ENDBRANCH   1   7
BRANCH   3  18
ATOM     18  C12 UNL     1       1.617   1.327  -1.534  1.00  0.00     0.117 C   
BRANCH  18  19
ATOM     19  N2  UNL     1       2.213  -0.016  -1.896  1.00  0.00     0.249 N   
ATOM     20  H14 UNL     1       2.490  -0.072  -2.878  1.00  0.00     0.199 HD  
ATOM     21  H15 UNL     1       1.463  -0.712  -1.771  1.00  0.00     0.199 HD  
BRANCH  19  22
ATOM     22  C13 UNL     1       3.365  -0.446  -1.056  1.00  0.00     0.164 C   
BRANCH  22  23
ATOM     23  C14 UNL     1       3.846  -1.808  -1.471  1.00  0.00    -0.002 A   
ATOM     24  C15 UNL     1       3.243  -2.969  -0.928  1.00  0.00     0.012 A   
ATOM     25  C19 UNL     1       4.865  -1.940  -2.429  1.00  0.00     0.045 A   
ATOM     26  C16 UNL     1       3.669  -4.245  -1.312  1.00  0.00     0.037 A   
ATOM     27  C18 UNL     1       5.261  -3.213  -2.785  1.00  0.00     0.109 A   
ATOM     28  C17 UNL     1       4.689  -4.333  -2.234  1.00  0.00     0.108 A   
ATOM     29  O2  UNL     1       6.242  -3.519  -3.675  1.00  0.00    -0.316 OA  
ATOM     30  O3  UNL     1       5.239  -5.483  -2.703  1.00  0.00    -0.316 OA  
ATOM     31  C20 UNL     1       6.228  -4.964  -3.618  1.00  0.00     0.337 C   
ENDBRANCH  22  23
ENDBRANCH  19  22
ENDBRANCH  18  19
BRANCH  18  32
ATOM     32  C21 UNL     1       0.640   1.770  -2.664  1.00  0.00     0.043 C   
ATOM     33  C22 UNL     1      -0.130   3.054  -2.281  1.00  0.00     0.010 C   
ATOM     34  C26 UNL     1       1.370   2.002  -4.006  1.00  0.00     0.010 C   
ATOM     35  C23 UNL     1      -1.075   3.517  -3.388  1.00  0.00     0.001 C   
ATOM     36  C25 UNL     1       0.423   2.471  -5.111  1.00  0.00     0.001 C   
ATOM     37  C24 UNL     1      -0.344   3.721  -4.707  1.00  0.00     0.000 C   
ENDBRANCH  18  32
ENDBRANCH   3  18
TORSDOF 9
