REMARK SMILES Cc1cncc(CCn2cc([C@@H]([NH2+]Cc3ccc4c(c3)OCO4)C(C)C)nn2)c1
REMARK SMILES IDX 9 1 10 2 11 3 27 4 28 5 8 7 7 8 6 9 2 10 3 11 29 12 4 13
REMARK SMILES IDX 5 14 1 15 12 16 13 17 14 20 15 21 16 22 20 23 17 24 19 25
REMARK SMILES IDX 18 26 21 27 23 28 22 29 24 30 25 31 26 32
REMARK H PARENT 10 6 13 18 13 19
ROOT
ATOM     1   N2  UNL     1      -2.511   0.017   2.154  1.00  0.00    -0.212 N   
ATOM     2   C8  UNL     1      -2.356  -0.319   0.834  1.00  0.00     0.045 A   
ATOM     3   C9  UNL     1      -1.613  -1.480   0.880  1.00  0.00     0.127 A   
ATOM     4   N4  UNL     1      -1.466  -1.867   2.188  1.00  0.00    -0.132 NA  
ATOM     5   N5  UNL     1      -2.051  -0.962   2.956  1.00  0.00    -0.076 NA  
ATOM     6   H10 UNL     1      -2.634   0.349   0.031  1.00  0.00     0.083 HD  
ENDROOT
BRANCH   1   7
ATOM     7   C7  UNL     1      -2.718   1.351   2.689  1.00  0.00     0.139 C   
BRANCH   7   8
ATOM     8   C6  UNL     1      -1.399   2.010   3.142  1.00  0.00     0.058 C   
BRANCH   8   9
ATOM     9   C5  UNL     1      -0.340   1.987   2.063  1.00  0.00    -0.028 A   
ATOM     10  C2  UNL     1       0.601   2.812   0.001  1.00  0.00    -0.032 A   
ATOM     11  C3  UNL     1       1.422   1.688  -0.006  1.00  0.00     0.114 A   
ATOM     12  C22 UNL     1      -0.303   2.950   1.055  1.00  0.00     0.010 A   
ATOM     13  N1  UNL     1       1.386   0.698   0.923  1.00  0.00    -0.264 NA  
ATOM     14  C4  UNL     1       0.557   0.921   1.973  1.00  0.00     0.114 A   
ATOM     15  C1  UNL     1       0.728   3.865  -1.057  1.00  0.00     0.046 C   
ENDBRANCH   8   9
ENDBRANCH   7   8
ENDBRANCH   1   7
BRANCH   3  16
ATOM     16  C10 UNL     1      -0.852  -2.193  -0.196  1.00  0.00     0.117 C   
BRANCH  16  17
ATOM     17  N3  UNL     1       0.603  -2.193   0.213  1.00  0.00     0.249 N   
ATOM     18  H12 UNL     1       0.886  -1.201   0.348  1.00  0.00     0.199 HD  
ATOM     19  H13 UNL     1       0.651  -2.583   1.163  1.00  0.00     0.199 HD  
BRANCH  17  20
ATOM     20  C11 UNL     1       1.618  -2.840  -0.654  1.00  0.00     0.164 C   
BRANCH  20  21
ATOM     21  C12 UNL     1       1.828  -2.137  -1.966  1.00  0.00    -0.002 A   
ATOM     22  C13 UNL     1       1.177  -2.574  -3.143  1.00  0.00     0.012 A   
ATOM     23  C17 UNL     1       2.667  -1.011  -2.023  1.00  0.00     0.045 A   
ATOM     24  C14 UNL     1       1.343  -1.893  -4.355  1.00  0.00     0.037 A   
ATOM     25  C16 UNL     1       2.805  -0.358  -3.230  1.00  0.00     0.109 A   
ATOM     26  C15 UNL     1       2.161  -0.785  -4.364  1.00  0.00     0.108 A   
ATOM     27  O1  UNL     1       3.556   0.753  -3.446  1.00  0.00    -0.316 OA  
ATOM     28  O2  UNL     1       2.431  -0.002  -5.439  1.00  0.00    -0.316 OA  
ATOM     29  C18 UNL     1       3.355   0.947  -4.865  1.00  0.00     0.337 C   
ENDBRANCH  20  21
ENDBRANCH  17  20
ENDBRANCH  16  17
BRANCH  16  30
ATOM     30  C19 UNL     1      -1.385  -3.621  -0.486  1.00  0.00     0.037 C   
ATOM     31  C20 UNL     1      -1.270  -4.608   0.680  1.00  0.00     0.014 C   
ATOM     32  C21 UNL     1      -2.835  -3.580  -0.986  1.00  0.00     0.014 C   
ENDBRANCH  16  30
ENDBRANCH   3  16
TORSDOF 8
