REMARK SMILES CC(C)C[C@H]([NH2+]Cc1ccc2c(c1)OCO2)c1cn(CCc2cc[nH]n2)nn1
REMARK SMILES IDX 17 1 18 2 19 3 27 4 28 5 5 7 4 8 2 9 1 10 3 11 6 12 7 15
REMARK SMILES IDX 8 16 9 17 13 18 10 19 12 20 11 21 14 22 16 23 15 24 20 25
REMARK SMILES IDX 21 26 22 27 23 28 26 29 24 30 25 31
REMARK H PARENT 18 6 6 13 6 14 25 32
ROOT
ATOM     1   C14 UNL     1      -0.329  -0.932  -1.055  1.00  0.00     0.127 A   
ATOM     2   C15 UNL     1       0.830  -0.403  -0.536  1.00  0.00     0.045 A   
ATOM     3   N2  UNL     1       1.103   0.649  -1.361  1.00  0.00    -0.212 N   
ATOM     4   N5  UNL     1       0.223   0.709  -2.378  1.00  0.00    -0.076 NA  
ATOM     5   N6  UNL     1      -0.669  -0.251  -2.195  1.00  0.00    -0.132 NA  
ATOM     6   H20 UNL     1       1.404  -0.600   0.358  1.00  0.00     0.083 HD  
ENDROOT
BRANCH   1   7
ATOM     7   C5  UNL     1      -1.265  -1.946  -0.495  1.00  0.00     0.114 C   
BRANCH   7   8
ATOM     8   C4  UNL     1      -1.226  -3.293  -1.232  1.00  0.00     0.064 C   
BRANCH   8   9
ATOM     9   C2  UNL     1       0.116  -4.050  -1.127  1.00  0.00    -0.012 C   
ATOM     10  C1  UNL     1       0.055  -5.327  -1.971  1.00  0.00     0.007 C   
ATOM     11  C3  UNL     1       0.474  -4.404   0.317  1.00  0.00     0.007 C   
ENDBRANCH   8   9
ENDBRANCH   7   8
BRANCH   7  12
ATOM     12  N1  UNL     1      -2.669  -1.385  -0.607  1.00  0.00     0.249 N   
ATOM     13  H11 UNL     1      -3.057  -1.638  -1.523  1.00  0.00     0.199 HD  
ATOM     14  H12 UNL     1      -2.563  -0.361  -0.664  1.00  0.00     0.199 HD  
BRANCH  12  15
ATOM     15  C6  UNL     1      -3.614  -1.700   0.493  1.00  0.00     0.164 C   
BRANCH  15  16
ATOM     16  C7  UNL     1      -3.247  -1.005   1.777  1.00  0.00    -0.002 A   
ATOM     17  C8  UNL     1      -3.376   0.402   1.888  1.00  0.00     0.012 A   
ATOM     18  C12 UNL     1      -2.720  -1.736   2.856  1.00  0.00     0.045 A   
ATOM     19  C9  UNL     1      -2.965   1.075   3.043  1.00  0.00     0.037 A   
ATOM     20  C11 UNL     1      -2.322  -1.041   3.979  1.00  0.00     0.109 A   
ATOM     21  C10 UNL     1      -2.433   0.324   4.067  1.00  0.00     0.108 A   
ATOM     22  O1  UNL     1      -1.768  -1.589   5.092  1.00  0.00    -0.316 OA  
ATOM     23  O2  UNL     1      -1.942   0.809   5.237  1.00  0.00    -0.316 OA  
ATOM     24  C13 UNL     1      -1.602  -0.418   5.921  1.00  0.00     0.337 C   
ENDBRANCH  15  16
ENDBRANCH  12  15
ENDBRANCH   7  12
ENDBRANCH   1   7
BRANCH   3  25
ATOM     25  C16 UNL     1       2.127   1.661  -1.214  1.00  0.00     0.140 C   
BRANCH  25  26
ATOM     26  C17 UNL     1       1.607   2.926  -0.537  1.00  0.00     0.079 C   
BRANCH  26  27
ATOM     27  C18 UNL     1       1.439   2.775   0.942  1.00  0.00     0.061 A   
ATOM     28  C19 UNL     1       2.303   3.251   1.956  1.00  0.00     0.042 A   
ATOM     29  N4  UNL     1       0.378   2.136   1.457  1.00  0.00    -0.189 NA  
ATOM     30  C20 UNL     1       1.700   2.890   3.135  1.00  0.00     0.094 A   
ATOM     31  N3  UNL     1       0.546   2.253   2.789  1.00  0.00    -0.246 N   
ATOM     32  H27 UNL     1      -0.165   1.875   3.409  1.00  0.00     0.175 HD  
ENDBRANCH  26  27
ENDBRANCH  25  26
ENDBRANCH   3  25
TORSDOF 9
