REMARK SMILES COc1ccc(Cn2cc([C@@H]([NH2+]Cc3ccc4c(c3)OCO4)C3CCCC3)nn2)cc1OC
REMARK SMILES IDX 8 1 9 2 10 3 28 4 29 5 7 7 6 8 3 9 4 10 31 11 5 12 30 13
REMARK SMILES IDX 2 14 1 15 32 16 33 17 11 18 12 19 13 22 14 23 15 24 19 25
REMARK SMILES IDX 16 26 18 27 17 28 20 29 22 30 21 31 23 32 24 33 27 34 25 35
REMARK SMILES IDX 26 36
REMARK H PARENT 9 6 12 20 12 21
ROOT
ATOM     1   N1  UNL     1      -1.920  -1.503   1.888  1.00  0.00    -0.208 N   
ATOM     2   C7  UNL     1      -2.108  -0.306   1.250  1.00  0.00     0.046 A   
ATOM     3   C8  UNL     1      -1.925  -0.610  -0.081  1.00  0.00     0.127 A   
ATOM     4   N3  UNL     1      -1.686  -1.954  -0.209  1.00  0.00    -0.132 NA  
ATOM     5   N4  UNL     1      -1.686  -2.489   1.000  1.00  0.00    -0.076 NA  
ATOM     6   H8  UNL     1      -2.283   0.616   1.788  1.00  0.00     0.083 HD  
ENDROOT
BRANCH   1   7
ATOM     7   C6  UNL     1      -1.820  -1.753   3.319  1.00  0.00     0.169 C   
BRANCH   7   8
ATOM     8   C5  UNL     1      -0.630  -1.032   3.906  1.00  0.00    -0.026 A   
ATOM     9   C2  UNL     1       1.591   0.396   4.932  1.00  0.00     0.105 A   
ATOM     10  C3  UNL     1       0.305   0.626   5.429  1.00  0.00     0.036 A   
ATOM     11  C24 UNL     1       1.760  -0.587   3.945  1.00  0.00     0.105 A   
ATOM     12  C4  UNL     1      -0.796  -0.081   4.922  1.00  0.00     0.008 A   
ATOM     13  C23 UNL     1       0.665  -1.287   3.432  1.00  0.00     0.041 A   
BRANCH   9  14
ATOM     14  O1  UNL     1       2.715   1.069   5.326  1.00  0.00    -0.347 OA  
ATOM     15  C1  UNL     1       2.564   2.090   6.304  1.00  0.00     0.203 C   
ENDBRANCH   9  14
BRANCH  11  16
ATOM     16  O4  UNL     1       2.974  -0.856   3.362  1.00  0.00    -0.347 OA  
ATOM     17  C25 UNL     1       3.829  -1.558   4.267  1.00  0.00     0.203 C   
ENDBRANCH  11  16
ENDBRANCH   7   8
ENDBRANCH   1   7
BRANCH   3  18
ATOM     18  C9  UNL     1      -1.849   0.267  -1.289  1.00  0.00     0.117 C   
BRANCH  18  19
ATOM     19  N2  UNL     1      -0.735  -0.200  -2.188  1.00  0.00     0.249 N   
ATOM     20  H10 UNL     1      -0.791   0.222  -3.120  1.00  0.00     0.199 HD  
ATOM     21  H11 UNL     1      -0.856  -1.215  -2.319  1.00  0.00     0.199 HD  
BRANCH  19  22
ATOM     22  C10 UNL     1       0.639   0.005  -1.644  1.00  0.00     0.164 C   
BRANCH  22  23
ATOM     23  C11 UNL     1       1.677  -0.430  -2.640  1.00  0.00    -0.002 A   
ATOM     24  C12 UNL     1       2.025  -1.799  -2.750  1.00  0.00     0.012 A   
ATOM     25  C16 UNL     1       2.282   0.510  -3.492  1.00  0.00     0.045 A   
ATOM     26  C13 UNL     1       2.978  -2.226  -3.682  1.00  0.00     0.037 A   
ATOM     27  C15 UNL     1       3.219   0.056  -4.397  1.00  0.00     0.109 A   
ATOM     28  C14 UNL     1       3.562  -1.272  -4.487  1.00  0.00     0.108 A   
ATOM     29  O2  UNL     1       3.909   0.832  -5.276  1.00  0.00    -0.316 OA  
ATOM     30  O3  UNL     1       4.510  -1.500  -5.433  1.00  0.00    -0.316 OA  
ATOM     31  C17 UNL     1       4.746  -0.159  -5.917  1.00  0.00     0.337 C   
ENDBRANCH  22  23
ENDBRANCH  19  22
ENDBRANCH  18  19
BRANCH  18  32
ATOM     32  C18 UNL     1      -3.187   0.315  -2.053  1.00  0.00     0.043 C   
ATOM     33  C19 UNL     1      -3.632  -0.988  -2.728  1.00  0.00     0.010 C   
ATOM     34  C22 UNL     1      -3.248   1.370  -3.174  1.00  0.00     0.010 C   
ATOM     35  C20 UNL     1      -4.687  -0.513  -3.717  1.00  0.00     0.001 C   
ATOM     36  C21 UNL     1      -4.078   0.752  -4.301  1.00  0.00     0.001 C   
ENDBRANCH  18  32
ENDBRANCH   3  18
TORSDOF 9
