REMARK SMILES Cc1n[nH]c(C(C)C)c1Cn1cc([C@@H]([NH2+]Cc2ccc3c(c2)OCO3)C(C)(C)C)nn1
REMARK SMILES IDX 11 1 12 2 13 3 30 4 31 5 10 7 9 8 2 9 3 10 4 11 5 12 1 13
REMARK SMILES IDX 6 15 7 16 8 17 14 18 15 19 16 22 17 23 18 24 22 25 19 26
REMARK SMILES IDX 21 27 20 28 23 29 25 30 24 31 26 32 27 33 28 34 29 35
REMARK H PARENT 12 6 4 14 15 20 15 21
ROOT
ATOM     1   N3  UNL     1       3.076  -0.708  -0.736  1.00  0.00    -0.208 N   
ATOM     2   C9  UNL     1       2.586  -0.189   0.432  1.00  0.00     0.046 A   
ATOM     3   C10 UNL     1       1.845  -1.218   0.968  1.00  0.00     0.127 A   
ATOM     4   N5  UNL     1       1.933  -2.312   0.146  1.00  0.00    -0.132 NA  
ATOM     5   N6  UNL     1       2.695  -1.991  -0.886  1.00  0.00    -0.076 NA  
ATOM     6   H14 UNL     1       2.756   0.839   0.724  1.00  0.00     0.083 HD  
ENDROOT
BRANCH   1   7
ATOM     7   C8  UNL     1       3.786  -0.009  -1.798  1.00  0.00     0.173 C   
BRANCH   7   8
ATOM     8   C7  UNL     1       2.863   0.965  -2.456  1.00  0.00     0.013 A   
ATOM     9   C2  UNL     1       1.740   0.657  -3.279  1.00  0.00     0.062 A   
ATOM     10  N1  UNL     1       1.073   1.759  -3.631  1.00  0.00    -0.189 NA  
ATOM     11  N2  UNL     1       1.815   2.765  -3.156  1.00  0.00    -0.242 N   
ATOM     12  C3  UNL     1       2.879   2.352  -2.397  1.00  0.00     0.034 A   
ATOM     13  C1  UNL     1       1.246  -0.673  -3.719  1.00  0.00     0.069 C   
ATOM     14  H4  UNL     1       1.528   3.716  -3.373  1.00  0.00     0.175 HD  
BRANCH  12  15
ATOM     15  C4  UNL     1       3.799   3.325  -1.713  1.00  0.00     0.029 C   
ATOM     16  C5  UNL     1       3.022   4.326  -0.852  1.00  0.00     0.014 C   
ATOM     17  C6  UNL     1       4.680   4.048  -2.731  1.00  0.00     0.014 C   
ENDBRANCH  12  15
ENDBRANCH   7   8
ENDBRANCH   1   7
BRANCH   3  18
ATOM     18  C11 UNL     1       0.929  -1.251   2.151  1.00  0.00     0.120 C   
BRANCH  18  19
ATOM     19  N4  UNL     1      -0.365  -1.934   1.747  1.00  0.00     0.250 N   
ATOM     20  H16 UNL     1      -0.950  -2.126   2.564  1.00  0.00     0.199 HD  
ATOM     21  H17 UNL     1      -0.099  -2.844   1.347  1.00  0.00     0.199 HD  
BRANCH  19  22
ATOM     22  C12 UNL     1      -1.193  -1.233   0.714  1.00  0.00     0.164 C   
BRANCH  22  23
ATOM     23  C13 UNL     1      -1.663   0.126   1.154  1.00  0.00    -0.002 A   
ATOM     24  C14 UNL     1      -1.161   1.290   0.522  1.00  0.00     0.012 A   
ATOM     25  C18 UNL     1      -2.576   0.253   2.216  1.00  0.00     0.045 A   
ATOM     26  C15 UNL     1      -1.547   2.564   0.954  1.00  0.00     0.037 A   
ATOM     27  C17 UNL     1      -2.933   1.524   2.617  1.00  0.00     0.109 A   
ATOM     28  C16 UNL     1      -2.430   2.647   2.009  1.00  0.00     0.108 A   
ATOM     29  O1  UNL     1      -3.789   1.821   3.629  1.00  0.00    -0.316 OA  
ATOM     30  O2  UNL     1      -2.905   3.793   2.563  1.00  0.00    -0.316 OA  
ATOM     31  C19 UNL     1      -3.804   3.265   3.561  1.00  0.00     0.337 C   
ENDBRANCH  22  23
ENDBRANCH  19  22
ENDBRANCH  18  19
BRANCH  18  32
ATOM     32  C20 UNL     1       1.542  -1.935   3.423  1.00  0.00     0.010 C   
ATOM     33  C21 UNL     1       2.870  -1.241   3.805  1.00  0.00     0.017 C   
ATOM     34  C22 UNL     1       1.821  -3.438   3.226  1.00  0.00     0.017 C   
ATOM     35  C23 UNL     1       0.587  -1.776   4.629  1.00  0.00     0.017 C   
ENDBRANCH  18  32
ENDBRANCH   3  18
TORSDOF 8
