REMARK SMILES CC(C)[C@H]([NH2+]Cc1ccc2c(c1)OCO2)c1cn(CCc2ccco2)nn1
REMARK SMILES IDX 16 1 17 2 18 3 26 4 27 5 4 7 2 8 1 9 3 10 5 11 6 14 7 15
REMARK SMILES IDX 8 16 12 17 9 18 11 19 10 20 13 21 15 22 14 23 19 24 20 25
REMARK SMILES IDX 21 26 22 27 25 28 23 29 24 30
REMARK H PARENT 17 6 5 12 5 13
ROOT
ATOM     1   C13 UNL     1      -1.927   0.095   0.032  1.00  0.00     0.127 A   
ATOM     2   C14 UNL     1      -1.466   1.264  -0.529  1.00  0.00     0.045 A   
ATOM     3   N2  UNL     1      -1.515   2.164   0.497  1.00  0.00    -0.212 N   
ATOM     4   N3  UNL     1      -1.980   1.590   1.621  1.00  0.00    -0.076 NA  
ATOM     5   N4  UNL     1      -2.239   0.321   1.349  1.00  0.00    -0.132 NA  
ATOM     6   H18 UNL     1      -1.094   1.526  -1.510  1.00  0.00     0.083 HD  
ENDROOT
BRANCH   1   7
ATOM     7   C4  UNL     1      -2.033  -1.283  -0.529  1.00  0.00     0.117 C   
BRANCH   7   8
ATOM     8   C2  UNL     1      -3.438  -1.639  -1.086  1.00  0.00     0.037 C   
ATOM     9   C1  UNL     1      -3.794  -0.776  -2.302  1.00  0.00     0.014 C   
ATOM     10  C3  UNL     1      -4.569  -1.567  -0.053  1.00  0.00     0.014 C   
ENDBRANCH   7   8
BRANCH   7  11
ATOM     11  N1  UNL     1      -1.660  -2.310   0.521  1.00  0.00     0.249 N   
ATOM     12  H9  UNL     1      -2.246  -2.108   1.343  1.00  0.00     0.199 HD  
ATOM     13  H10 UNL     1      -1.896  -3.250   0.193  1.00  0.00     0.199 HD  
BRANCH  11  14
ATOM     14  C5  UNL     1      -0.242  -2.291   0.994  1.00  0.00     0.164 C   
BRANCH  14  15
ATOM     15  C6  UNL     1       0.752  -2.610  -0.087  1.00  0.00    -0.002 A   
ATOM     16  C7  UNL     1       0.902  -3.936  -0.559  1.00  0.00     0.012 A   
ATOM     17  C11 UNL     1       1.518  -1.581  -0.661  1.00  0.00     0.045 A   
ATOM     18  C8  UNL     1       1.801  -4.233  -1.589  1.00  0.00     0.037 A   
ATOM     19  C10 UNL     1       2.394  -1.907  -1.675  1.00  0.00     0.109 A   
ATOM     20  C9  UNL     1       2.531  -3.196  -2.127  1.00  0.00     0.108 A   
ATOM     21  O1  UNL     1       3.199  -1.035  -2.338  1.00  0.00    -0.316 OA  
ATOM     22  O2  UNL     1       3.441  -3.300  -3.129  1.00  0.00    -0.316 OA  
ATOM     23  C12 UNL     1       3.885  -1.931  -3.243  1.00  0.00     0.337 C   
ENDBRANCH  14  15
ENDBRANCH  11  14
ENDBRANCH   7  11
ENDBRANCH   1   7
BRANCH   3  24
ATOM     24  C15 UNL     1      -1.111   3.554   0.487  1.00  0.00     0.141 C   
BRANCH  24  25
ATOM     25  C16 UNL     1       0.210   3.797   1.211  1.00  0.00     0.083 C   
BRANCH  25  26
ATOM     26  C17 UNL     1       1.366   3.085   0.599  1.00  0.00     0.060 A   
ATOM     27  C18 UNL     1       2.472   2.457   1.132  1.00  0.00     0.031 A   
ATOM     28  O3  UNL     1       1.407   3.022  -0.763  1.00  0.00    -0.322 OA  
ATOM     29  C19 UNL     1       3.235   1.992   0.034  1.00  0.00     0.028 A   
ATOM     30  C20 UNL     1       2.546   2.363  -1.097  1.00  0.00     0.136 A   
ENDBRANCH  25  26
ENDBRANCH  24  25
ENDBRANCH   3  24
TORSDOF 8
