REMARK SMILES COCc1ccccc1-n1cc([C@@H]([NH2+]Cc2ccc3c(c2)OCO3)C(C)C)nn1
REMARK SMILES IDX 10 1 11 2 12 3 28 4 29 5 9 6 4 7 5 8 6 9 8 10 7 11 3 12 2 13
REMARK SMILES IDX 1 14 13 15 14 16 15 19 16 20 17 21 21 22 18 23 20 24 19 25
REMARK SMILES IDX 22 26 24 27 23 28 25 29 26 30 27 31
REMARK H PARENT 14 17 14 18
ROOT
ATOM     1   N1  UNL     1      -2.197  -1.221   0.132  1.00  0.00    -0.180 N   
ATOM     2   C9  UNL     1      -1.114  -1.715   0.834  1.00  0.00     0.135 A   
ATOM     3   C10 UNL     1      -0.165  -0.719   0.818  1.00  0.00     0.127 A   
ATOM     4   N3  UNL     1      -0.635   0.331   0.090  1.00  0.00    -0.131 NA  
ATOM     5   N4  UNL     1      -1.846   0.017  -0.335  1.00  0.00    -0.071 NA  
ENDROOT
BRANCH   1   6
ATOM     6   C8  UNL     1      -3.498  -1.756  -0.137  1.00  0.00     0.063 A   
ATOM     7   C3  UNL     1      -3.938  -3.055   0.203  1.00  0.00     0.001 A   
ATOM     8   C4  UNL     1      -5.277  -3.412  -0.093  1.00  0.00     0.008 A   
ATOM     9   C5  UNL     1      -6.155  -2.532  -0.718  1.00  0.00     0.001 A   
ATOM     10  C7  UNL     1      -4.405  -0.887  -0.792  1.00  0.00     0.026 A   
ATOM     11  C6  UNL     1      -5.716  -1.270  -1.077  1.00  0.00     0.002 A   
BRANCH   7  12
ATOM     12  C2  UNL     1      -3.108  -4.144   0.834  1.00  0.00     0.197 C   
BRANCH  12  13
ATOM     13  O1  UNL     1      -2.833  -3.862   2.203  1.00  0.00    -0.380 OA  
ATOM     14  C1  UNL     1      -3.870  -4.294   3.073  1.00  0.00     0.195 C   
ENDBRANCH  12  13
ENDBRANCH   7  12
ENDBRANCH   1   6
BRANCH   3  15
ATOM     15  C11 UNL     1       1.192  -0.648   1.446  1.00  0.00     0.117 C   
BRANCH  15  16
ATOM     16  N2  UNL     1       2.045   0.383   0.762  1.00  0.00     0.249 N   
ATOM     17  H12 UNL     1       1.459   1.217   0.629  1.00  0.00     0.199 HD  
ATOM     18  H13 UNL     1       2.834   0.675   1.345  1.00  0.00     0.199 HD  
BRANCH  16  19
ATOM     19  C12 UNL     1       2.555  -0.005  -0.581  1.00  0.00     0.164 C   
BRANCH  19  20
ATOM     20  C13 UNL     1       3.343   1.121  -1.187  1.00  0.00    -0.002 A   
ATOM     21  C14 UNL     1       2.688   2.117  -1.948  1.00  0.00     0.012 A   
ATOM     22  C18 UNL     1       4.726   1.220  -0.962  1.00  0.00     0.045 A   
ATOM     23  C15 UNL     1       3.402   3.192  -2.491  1.00  0.00     0.037 A   
ATOM     24  C17 UNL     1       5.399   2.293  -1.512  1.00  0.00     0.109 A   
ATOM     25  C16 UNL     1       4.756   3.251  -2.255  1.00  0.00     0.108 A   
ATOM     26  O2  UNL     1       6.730   2.533  -1.394  1.00  0.00    -0.316 OA  
ATOM     27  O3  UNL     1       5.604   4.214  -2.703  1.00  0.00    -0.316 OA  
ATOM     28  C19 UNL     1       6.863   3.739  -2.181  1.00  0.00     0.337 C   
ENDBRANCH  19  20
ENDBRANCH  16  19
ENDBRANCH  15  16
BRANCH  15  29
ATOM     29  C20 UNL     1       1.113  -0.351   2.966  1.00  0.00     0.037 C   
ATOM     30  C21 UNL     1       0.633   1.065   3.295  1.00  0.00     0.014 C   
ATOM     31  C22 UNL     1       2.448  -0.623   3.670  1.00  0.00     0.014 C   
ENDBRANCH  15  29
ENDBRANCH   3  15
TORSDOF 8
