REMARK SMILES Oc1ccc(Cl)cc1Cn1cc([C@@H]([NH2+]Cc2ccc3c(c2)OCO3)C2CCCCC2)nn1
REMARK SMILES IDX 10 1 11 2 12 3 31 4 32 5 9 7 8 8 2 9 3 10 4 11 7 12 5 13
REMARK SMILES IDX 6 14 1 15 13 17 14 18 15 21 16 22 17 23 21 24 18 25 20 26
REMARK SMILES IDX 19 27 22 28 24 29 23 30 25 31 26 32 30 33 27 34 29 35 28 36
REMARK H PARENT 11 6 1 16 14 19 14 20
ROOT
ATOM     1   N1  UNL     1      -1.703  -0.157  -2.245  1.00  0.00    -0.208 N   
ATOM     2   C8  UNL     1      -0.687  -0.281  -1.337  1.00  0.00     0.046 A   
ATOM     3   C9  UNL     1      -0.907   0.748  -0.449  1.00  0.00     0.127 A   
ATOM     4   N3  UNL     1      -1.983   1.484  -0.871  1.00  0.00    -0.132 NA  
ATOM     5   N4  UNL     1      -2.448   0.935  -1.981  1.00  0.00    -0.076 NA  
ATOM     6   H7  UNL     1       0.040  -1.080  -1.392  1.00  0.00     0.083 HD  
ENDROOT
BRANCH   1   7
ATOM     7   C7  UNL     1      -1.998  -1.000  -3.390  1.00  0.00     0.172 C   
BRANCH   7   8
ATOM     8   C6  UNL     1      -2.643  -2.291  -2.961  1.00  0.00     0.003 A   
ATOM     9   C1  UNL     1      -1.891  -3.452  -2.750  1.00  0.00     0.076 A   
ATOM     10  C2  UNL     1      -2.494  -4.644  -2.350  1.00  0.00     0.035 A   
ATOM     11  C3  UNL     1      -3.873  -4.682  -2.142  1.00  0.00     0.023 A   
ATOM     12  C5  UNL     1      -4.029  -2.342  -2.739  1.00  0.00     0.028 A   
ATOM     13  C4  UNL     1      -4.634  -3.532  -2.332  1.00  0.00     0.041 A   
ATOM     14  CL1 UNL     1      -6.330  -3.575  -2.059  1.00  0.00    -0.084 Cl  
BRANCH   9  15
ATOM     15  O1  UNL     1      -0.538  -3.399  -2.933  1.00  0.00    -0.361 OA  
ATOM     16  H1  UNL     1      -0.189  -4.309  -2.914  1.00  0.00     0.218 HD  
ENDBRANCH   9  15
ENDBRANCH   7   8
ENDBRANCH   1   7
BRANCH   3  17
ATOM     17  C10 UNL     1      -0.162   1.168   0.777  1.00  0.00     0.117 C   
BRANCH  17  18
ATOM     18  N2  UNL     1      -0.033   2.680   0.781  1.00  0.00     0.249 N   
ATOM     19  H9  UNL     1      -0.991   3.050   0.708  1.00  0.00     0.199 HD  
ATOM     20  H10 UNL     1       0.357   3.010   1.665  1.00  0.00     0.199 HD  
BRANCH  18  21
ATOM     21  C11 UNL     1       0.767   3.284  -0.328  1.00  0.00     0.164 C   
BRANCH  21  22
ATOM     22  C12 UNL     1       2.216   2.885  -0.288  1.00  0.00    -0.002 A   
ATOM     23  C13 UNL     1       2.737   1.998  -1.260  1.00  0.00     0.012 A   
ATOM     24  C17 UNL     1       3.055   3.360   0.735  1.00  0.00     0.045 A   
ATOM     25  C14 UNL     1       4.072   1.583  -1.213  1.00  0.00     0.037 A   
ATOM     26  C16 UNL     1       4.365   2.928   0.754  1.00  0.00     0.109 A   
ATOM     27  C15 UNL     1       4.859   2.065  -0.192  1.00  0.00     0.108 A   
ATOM     28  O2  UNL     1       5.298   3.277   1.679  1.00  0.00    -0.316 OA  
ATOM     29  O3  UNL     1       6.168   1.765   0.015  1.00  0.00    -0.316 OA  
ATOM     30  C18 UNL     1       6.454   2.565   1.183  1.00  0.00     0.337 C   
ENDBRANCH  21  22
ENDBRANCH  18  21
ENDBRANCH  17  18
BRANCH  17  31
ATOM     31  C19 UNL     1      -0.872   0.714   2.091  1.00  0.00     0.043 C   
ATOM     32  C20 UNL     1      -1.093  -0.817   2.106  1.00  0.00     0.010 C   
ATOM     33  C24 UNL     1      -0.084   1.130   3.354  1.00  0.00     0.010 C   
ATOM     34  C21 UNL     1      -1.733  -1.308   3.402  1.00  0.00     0.001 C   
ATOM     35  C23 UNL     1      -0.723   0.620   4.644  1.00  0.00     0.001 C   
ATOM     36  C22 UNL     1      -0.925  -0.887   4.620  1.00  0.00     0.000 C   
ENDBRANCH  17  31
ENDBRANCH   3  17
TORSDOF 8
