REMARK SMILES CC(C)C[C@H]([NH2+]Cc1ccc2c(c1)OCO2)c1cn([C@H](CO)c2cccnc2)nn1
REMARK SMILES IDX 17 1 18 2 19 3 29 4 30 5 5 7 4 8 2 9 1 10 3 11 6 12 7 15
REMARK SMILES IDX 8 16 9 17 13 18 10 19 12 20 11 21 14 22 16 23 15 24 20 25
REMARK SMILES IDX 21 26 22 27 23 29 24 30 28 31 25 32 27 33 26 34
REMARK H PARENT 18 6 6 13 6 14 22 28
ROOT
ATOM     1   C14 UNL     1      -0.407   0.306   0.495  1.00  0.00     0.127 A   
ATOM     2   C15 UNL     1      -1.301   0.961   1.311  1.00  0.00     0.046 A   
ATOM     3   N2  UNL     1      -0.569   1.972   1.875  1.00  0.00    -0.202 N   
ATOM     4   N4  UNL     1       0.703   1.941   1.425  1.00  0.00    -0.075 NA  
ATOM     5   N5  UNL     1       0.812   0.930   0.579  1.00  0.00    -0.132 NA  
ATOM     6   H20 UNL     1      -2.349   0.812   1.536  1.00  0.00     0.083 HD  
ENDROOT
BRANCH   1   7
ATOM     7   C5  UNL     1      -0.570  -0.871  -0.413  1.00  0.00     0.114 C   
BRANCH   7   8
ATOM     8   C4  UNL     1      -1.339  -2.059   0.201  1.00  0.00     0.064 C   
BRANCH   8   9
ATOM     9   C2  UNL     1      -0.599  -2.983   1.195  1.00  0.00    -0.012 C   
ATOM     10  C1  UNL     1      -1.528  -4.133   1.607  1.00  0.00     0.007 C   
ATOM     11  C3  UNL     1      -0.102  -2.263   2.448  1.00  0.00     0.007 C   
ENDBRANCH   8   9
ENDBRANCH   7   8
BRANCH   7  12
ATOM     12  N1  UNL     1       0.773  -1.302  -0.928  1.00  0.00     0.249 N   
ATOM     13  H11 UNL     1       1.309  -0.436  -1.100  1.00  0.00     0.199 HD  
ATOM     14  H12 UNL     1       1.308  -1.751  -0.174  1.00  0.00     0.199 HD  
BRANCH  12  15
ATOM     15  C6  UNL     1       0.795  -2.126  -2.157  1.00  0.00     0.164 C   
BRANCH  15  16
ATOM     16  C7  UNL     1       2.204  -2.505  -2.513  1.00  0.00    -0.002 A   
ATOM     17  C8  UNL     1       2.981  -1.671  -3.354  1.00  0.00     0.012 A   
ATOM     18  C12 UNL     1       2.780  -3.665  -1.963  1.00  0.00     0.045 A   
ATOM     19  C9  UNL     1       4.310  -1.994  -3.656  1.00  0.00     0.037 A   
ATOM     20  C11 UNL     1       4.091  -3.953  -2.280  1.00  0.00     0.109 A   
ATOM     21  C10 UNL     1       4.835  -3.142  -3.103  1.00  0.00     0.108 A   
ATOM     22  O1  UNL     1       4.793  -5.029  -1.835  1.00  0.00    -0.316 OA  
ATOM     23  O2  UNL     1       6.099  -3.606  -3.284  1.00  0.00    -0.316 OA  
ATOM     24  C13 UNL     1       6.065  -4.814  -2.490  1.00  0.00     0.337 C   
ENDBRANCH  15  16
ENDBRANCH  12  15
ENDBRANCH   7  12
ENDBRANCH   1   7
BRANCH   3  25
ATOM     25  C16 UNL     1      -0.991   3.005   2.821  1.00  0.00     0.157 C   
BRANCH  25  26
ATOM     26  C17 UNL     1      -1.093   2.451   4.256  1.00  0.00     0.186 C   
BRANCH  26  27
ATOM     27  O3  UNL     1      -1.997   1.350   4.370  1.00  0.00    -0.394 OA  
ATOM     28  H24 UNL     1      -2.050   1.122   5.319  1.00  0.00     0.210 HD  
ENDBRANCH  26  27
ENDBRANCH  25  26
BRANCH  25  29
ATOM     29  C18 UNL     1      -2.197   3.757   2.291  1.00  0.00    -0.005 A   
ATOM     30  C19 UNL     1      -2.021   4.837   1.411  1.00  0.00     0.009 A   
ATOM     31  C22 UNL     1      -3.510   3.409   2.600  1.00  0.00     0.116 A   
ATOM     32  C20 UNL     1      -3.128   5.513   0.904  1.00  0.00     0.020 A   
ATOM     33  N3  UNL     1      -4.600   4.041   2.110  1.00  0.00    -0.264 NA  
ATOM     34  C21 UNL     1      -4.388   5.083   1.280  1.00  0.00     0.111 A   
ENDBRANCH  25  29
ENDBRANCH   3  25
TORSDOF 10
