REMARK SMILES Cc1cc(Cn2cc([C@@H]([NH2+]Cc3ccc4c(c3)OCO4)C(C)(C)C)nn2)c(C)o1
REMARK SMILES IDX 6 1 7 2 8 3 25 4 26 5 5 7 4 8 2 9 3 10 29 11 27 12 1 13
REMARK SMILES IDX 28 14 9 15 10 16 11 19 12 20 13 21 17 22 14 23 16 24 15 25
REMARK SMILES IDX 18 26 20 27 19 28 21 29 22 30 23 31 24 32
REMARK H PARENT 7 6 10 17 10 18
ROOT
ATOM     1   N1  UNL     1       0.743  -0.809   2.592  1.00  0.00    -0.208 N   
ATOM     2   C6  UNL     1       0.861  -1.352   1.340  1.00  0.00     0.046 A   
ATOM     3   C7  UNL     1       1.069  -0.263   0.522  1.00  0.00     0.127 A   
ATOM     4   N3  UNL     1       1.074   0.877   1.285  1.00  0.00    -0.132 NA  
ATOM     5   N4  UNL     1       0.877   0.531   2.546  1.00  0.00    -0.076 NA  
ATOM     6   H7  UNL     1       0.758  -2.414   1.161  1.00  0.00     0.083 HD  
ENDROOT
BRANCH   1   7
ATOM     7   C5  UNL     1       0.466  -1.488   3.849  1.00  0.00     0.172 C   
BRANCH   7   8
ATOM     8   C4  UNL     1      -0.938  -1.987   3.874  1.00  0.00     0.000 A   
ATOM     9   C2  UNL     1      -2.744  -3.329   3.901  1.00  0.00     0.056 A   
ATOM     10  C3  UNL     1      -1.367  -3.348   3.870  1.00  0.00     0.037 A   
ATOM     11  O3  UNL     1      -3.192  -2.045   3.919  1.00  0.00    -0.319 OA  
ATOM     12  C21 UNL     1      -2.101  -1.234   3.924  1.00  0.00     0.061 A   
ATOM     13  C1  UNL     1      -3.777  -4.384   3.934  1.00  0.00     0.073 C   
ATOM     14  C22 UNL     1      -2.375   0.219   3.973  1.00  0.00     0.073 C   
ENDBRANCH   7   8
ENDBRANCH   1   7
BRANCH   3  15
ATOM     15  C8  UNL     1       1.172  -0.145  -0.970  1.00  0.00     0.120 C   
BRANCH  15  16
ATOM     16  N2  UNL     1       0.445   1.109  -1.397  1.00  0.00     0.250 N   
ATOM     17  H9  UNL     1       0.716   1.427  -2.331  1.00  0.00     0.199 HD  
ATOM     18  H10 UNL     1       0.740   1.853  -0.745  1.00  0.00     0.199 HD  
BRANCH  16  19
ATOM     19  C9  UNL     1      -1.043   1.035  -1.327  1.00  0.00     0.164 C   
BRANCH  19  20
ATOM     20  C10 UNL     1      -1.651   2.370  -1.650  1.00  0.00    -0.002 A   
ATOM     21  C11 UNL     1      -2.084   2.665  -2.964  1.00  0.00     0.012 A   
ATOM     22  C15 UNL     1      -1.747   3.353  -0.649  1.00  0.00     0.045 A   
ATOM     23  C12 UNL     1      -2.616   3.921  -3.278  1.00  0.00     0.037 A   
ATOM     24  C14 UNL     1      -2.276   4.579  -0.992  1.00  0.00     0.109 A   
ATOM     25  C13 UNL     1      -2.698   4.856  -2.270  1.00  0.00     0.108 A   
ATOM     26  O1  UNL     1      -2.438   5.634  -0.151  1.00  0.00    -0.316 OA  
ATOM     27  O2  UNL     1      -3.180   6.120  -2.394  1.00  0.00    -0.316 OA  
ATOM     28  C16 UNL     1      -3.040   6.603  -1.040  1.00  0.00     0.337 C   
ENDBRANCH  19  20
ENDBRANCH  16  19
ENDBRANCH  15  16
BRANCH  15  29
ATOM     29  C17 UNL     1       2.641  -0.141  -1.517  1.00  0.00     0.010 C   
ATOM     30  C18 UNL     1       3.385  -1.414  -1.052  1.00  0.00     0.017 C   
ATOM     31  C19 UNL     1       2.636  -0.163  -3.065  1.00  0.00     0.017 C   
ATOM     32  C20 UNL     1       3.448   1.090  -1.054  1.00  0.00     0.017 C   
ENDBRANCH  15  29
ENDBRANCH   3  15
TORSDOF 7
