REMARK SMILES C[C@H]1Cc2cc(Cn3cc([C@@H]([NH2+]Cc4ccc5c(c4)OCO5)C4CCCC4)nn3)ccc2O1
REMARK SMILES IDX 8 1 9 2 10 3 28 4 29 5 7 7 6 8 2 9 3 10 33 11 4 12 32 13
REMARK SMILES IDX 5 14 31 15 30 16 1 17 11 18 12 19 13 22 14 23 15 24 19 25
REMARK SMILES IDX 16 26 18 27 17 28 20 29 22 30 21 31 23 32 24 33 27 34 25 35
REMARK SMILES IDX 26 36
REMARK H PARENT 9 6 12 20 12 21
ROOT
ATOM     1   N1  UNL     1       1.911   0.602  -1.238  1.00  0.00    -0.208 N   
ATOM     2   C8  UNL     1       1.532   0.503   0.073  1.00  0.00     0.046 A   
ATOM     3   C9  UNL     1       1.431  -0.854   0.289  1.00  0.00     0.127 A   
ATOM     4   N3  UNL     1       1.742  -1.518  -0.870  1.00  0.00    -0.132 NA  
ATOM     5   N4  UNL     1       2.035  -0.618  -1.795  1.00  0.00    -0.076 NA  
ATOM     6   H10 UNL     1       1.361   1.371   0.694  1.00  0.00     0.083 HD  
ENDROOT
BRANCH   1   7
ATOM     7   C7  UNL     1       2.160   1.806  -2.012  1.00  0.00     0.169 C   
BRANCH   7   8
ATOM     8   C6  UNL     1       0.866   2.404  -2.503  1.00  0.00    -0.028 A   
ATOM     9   C2  UNL     1      -2.977   3.016  -4.993  1.00  0.00     0.126 C   
ATOM     10  C3  UNL     1      -1.683   2.269  -5.356  1.00  0.00     0.070 C   
ATOM     11  O3  UNL     1      -2.699   3.948  -3.916  1.00  0.00    -0.343 OA  
ATOM     12  C4  UNL     1      -0.911   2.503  -4.114  1.00  0.00    -0.015 A   
ATOM     13  C26 UNL     1      -1.533   3.488  -3.366  1.00  0.00     0.079 A   
ATOM     14  C5  UNL     1       0.287   1.946  -3.701  1.00  0.00     0.012 A   
ATOM     15  C25 UNL     1      -0.991   3.964  -2.192  1.00  0.00     0.034 A   
ATOM     16  C24 UNL     1       0.217   3.414  -1.756  1.00  0.00     0.008 A   
ATOM     17  C1  UNL     1      -3.555   3.785  -6.170  1.00  0.00     0.039 C   
ENDBRANCH   7   8
ENDBRANCH   1   7
BRANCH   3  18
ATOM     18  C10 UNL     1       0.986  -1.625   1.487  1.00  0.00     0.117 C   
BRANCH  18  19
ATOM     19  N2  UNL     1       0.206  -2.854   1.063  1.00  0.00     0.249 N   
ATOM     20  H12 UNL     1       0.066  -3.476   1.863  1.00  0.00     0.199 HD  
ATOM     21  H13 UNL     1       0.799  -3.351   0.384  1.00  0.00     0.199 HD  
BRANCH  19  22
ATOM     22  C11 UNL     1      -1.109  -2.607   0.395  1.00  0.00     0.164 C   
BRANCH  22  23
ATOM     23  C12 UNL     1      -2.106  -1.925   1.290  1.00  0.00    -0.002 A   
ATOM     24  C13 UNL     1      -2.702  -2.625   2.366  1.00  0.00     0.012 A   
ATOM     25  C17 UNL     1      -2.423  -0.571   1.084  1.00  0.00     0.045 A   
ATOM     26  C14 UNL     1      -3.595  -1.984   3.232  1.00  0.00     0.037 A   
ATOM     27  C16 UNL     1      -3.305   0.030   1.957  1.00  0.00     0.109 A   
ATOM     28  C15 UNL     1      -3.873  -0.655   3.002  1.00  0.00     0.108 A   
ATOM     29  O1  UNL     1      -3.707   1.327   1.907  1.00  0.00    -0.316 OA  
ATOM     30  O2  UNL     1      -4.705   0.124   3.740  1.00  0.00    -0.316 OA  
ATOM     31  C18 UNL     1      -4.627   1.373   3.021  1.00  0.00     0.337 C   
ENDBRANCH  22  23
ENDBRANCH  19  22
ENDBRANCH  18  19
BRANCH  18  32
ATOM     32  C19 UNL     1       2.127  -2.092   2.413  1.00  0.00     0.043 C   
ATOM     33  C20 UNL     1       3.161  -3.052   1.807  1.00  0.00     0.010 C   
ATOM     34  C23 UNL     1       2.985  -0.968   2.996  1.00  0.00     0.010 C   
ATOM     35  C21 UNL     1       4.449  -2.835   2.606  1.00  0.00     0.001 C   
ATOM     36  C22 UNL     1       4.151  -1.726   3.610  1.00  0.00     0.001 C   
ENDBRANCH  18  32
ENDBRANCH   3  18
TORSDOF 7
