REMARK SMILES C[C@@H]1Cc2cc(Cn3cc([C@@H]([NH2+]Cc4ccc5c(c4)OCO5)C4CCCC4)nn3)ccc2O1
REMARK SMILES IDX 8 1 9 2 10 3 28 4 29 5 7 7 6 8 2 9 3 10 33 11 4 12 32 13
REMARK SMILES IDX 5 14 31 15 30 16 1 17 11 18 12 19 13 22 14 23 15 24 19 25
REMARK SMILES IDX 16 26 18 27 17 28 20 29 22 30 21 31 23 32 24 33 27 34 25 35
REMARK SMILES IDX 26 36
REMARK H PARENT 9 6 12 20 12 21
ROOT
ATOM     1   N1  UNL     1       2.560   1.324  -1.172  1.00  0.00    -0.208 N   
ATOM     2   C8  UNL     1       2.119   0.051  -0.927  1.00  0.00     0.046 A   
ATOM     3   C9  UNL     1       0.904  -0.008  -1.572  1.00  0.00     0.127 A   
ATOM     4   N3  UNL     1       0.659   1.193  -2.185  1.00  0.00    -0.132 NA  
ATOM     5   N4  UNL     1       1.676   1.999  -1.933  1.00  0.00    -0.076 NA  
ATOM     6   H10 UNL     1       2.676  -0.645  -0.317  1.00  0.00     0.083 HD  
ENDROOT
BRANCH   1   7
ATOM     7   C7  UNL     1       3.764   1.970  -0.677  1.00  0.00     0.169 C   
BRANCH   7   8
ATOM     8   C6  UNL     1       3.626   2.298   0.791  1.00  0.00    -0.028 A   
ATOM     9   C2  UNL     1       3.970   1.974   5.388  1.00  0.00     0.126 C   
ATOM     10  C3  UNL     1       4.835   1.332   4.292  1.00  0.00     0.070 C   
ATOM     11  O3  UNL     1       3.262   3.111   4.828  1.00  0.00    -0.343 OA  
ATOM     12  C4  UNL     1       4.162   1.883   3.093  1.00  0.00    -0.015 A   
ATOM     13  C26 UNL     1       3.312   2.906   3.476  1.00  0.00     0.079 A   
ATOM     14  C5  UNL     1       4.336   1.562   1.757  1.00  0.00     0.012 A   
ATOM     15  C25 UNL     1       2.613   3.657   2.555  1.00  0.00     0.034 A   
ATOM     16  C24 UNL     1       2.771   3.347   1.202  1.00  0.00     0.008 A   
ATOM     17  C1  UNL     1       4.790   2.445   6.578  1.00  0.00     0.039 C   
ENDBRANCH   7   8
ENDBRANCH   1   7
BRANCH   3  18
ATOM     18  C10 UNL     1      -0.136  -1.079  -1.619  1.00  0.00     0.117 C   
BRANCH  18  19
ATOM     19  N2  UNL     1      -1.501  -0.458  -1.455  1.00  0.00     0.249 N   
ATOM     20  H12 UNL     1      -2.250  -1.114  -1.700  1.00  0.00     0.199 HD  
ATOM     21  H13 UNL     1      -1.561   0.317  -2.133  1.00  0.00     0.199 HD  
BRANCH  19  22
ATOM     22  C11 UNL     1      -1.785   0.110  -0.106  1.00  0.00     0.164 C   
BRANCH  22  23
ATOM     23  C12 UNL     1      -3.184   0.656  -0.052  1.00  0.00    -0.002 A   
ATOM     24  C13 UNL     1      -3.446   1.982  -0.472  1.00  0.00     0.012 A   
ATOM     25  C17 UNL     1      -4.247  -0.163   0.364  1.00  0.00     0.045 A   
ATOM     26  C14 UNL     1      -4.750   2.490  -0.470  1.00  0.00     0.037 A   
ATOM     27  C16 UNL     1      -5.519   0.370   0.355  1.00  0.00     0.109 A   
ATOM     28  C15 UNL     1      -5.764   1.659  -0.051  1.00  0.00     0.108 A   
ATOM     29  O1  UNL     1      -6.652  -0.283   0.724  1.00  0.00    -0.316 OA  
ATOM     30  O2  UNL     1      -7.082   1.980   0.012  1.00  0.00    -0.316 OA  
ATOM     31  C18 UNL     1      -7.643   0.750   0.521  1.00  0.00     0.337 C   
ENDBRANCH  22  23
ENDBRANCH  19  22
ENDBRANCH  18  19
BRANCH  18  32
ATOM     32  C19 UNL     1      -0.110  -1.857  -2.948  1.00  0.00     0.043 C   
ATOM     33  C20 UNL     1      -1.133  -2.998  -3.029  1.00  0.00     0.010 C   
ATOM     34  C23 UNL     1       1.210  -2.594  -3.199  1.00  0.00     0.010 C   
ATOM     35  C21 UNL     1      -0.575  -3.986  -4.053  1.00  0.00     0.001 C   
ATOM     36  C22 UNL     1       0.865  -3.561  -4.321  1.00  0.00     0.001 C   
ENDBRANCH  18  32
ENDBRANCH   3  18
TORSDOF 7
