REMARK SMILES COc1cncc(Cn2cc([C@@H]([NH2+]Cc3ccc4c(c3)OCO4)C(C)C)nn2)c1
REMARK SMILES IDX 9 1 10 2 11 3 27 4 28 5 8 7 7 8 3 9 4 10 29 11 5 12 6 13
REMARK SMILES IDX 2 14 1 15 12 16 13 17 14 20 15 21 16 22 20 23 17 24 19 25
REMARK SMILES IDX 18 26 21 27 23 28 22 29 24 30 25 31 26 32
REMARK H PARENT 10 6 13 18 13 19
ROOT
ATOM     1   N2  UNL     1       1.390  -2.856   0.408  1.00  0.00    -0.208 N   
ATOM     2   C7  UNL     1       1.465  -2.166  -0.772  1.00  0.00     0.046 A   
ATOM     3   C8  UNL     1       2.043  -0.967  -0.417  1.00  0.00     0.127 A   
ATOM     4   N4  UNL     1       2.297  -0.970   0.930  1.00  0.00    -0.132 NA  
ATOM     5   N5  UNL     1       1.885  -2.126   1.424  1.00  0.00    -0.076 NA  
ATOM     6   H8  UNL     1       1.093  -2.569  -1.704  1.00  0.00     0.083 HD  
ENDROOT
BRANCH   1   7
ATOM     7   C6  UNL     1       0.799  -4.162   0.652  1.00  0.00     0.171 C   
BRANCH   7   8
ATOM     8   C5  UNL     1      -0.700  -4.075   0.635  1.00  0.00    -0.008 A   
ATOM     9   C2  UNL     1      -2.846  -4.531  -0.396  1.00  0.00     0.093 A   
ATOM     10  C3  UNL     1      -3.430  -3.823   0.645  1.00  0.00     0.144 A   
ATOM     11  C21 UNL     1      -1.456  -4.647  -0.394  1.00  0.00     0.042 A   
ATOM     12  N1  UNL     1      -2.730  -3.246   1.653  1.00  0.00    -0.262 NA  
ATOM     13  C4  UNL     1      -1.390  -3.398   1.636  1.00  0.00     0.116 A   
BRANCH   9  14
ATOM     14  O1  UNL     1      -3.480  -5.126  -1.446  1.00  0.00    -0.348 OA  
ATOM     15  C1  UNL     1      -4.904  -5.145  -1.402  1.00  0.00     0.203 C   
ENDBRANCH   9  14
ENDBRANCH   7   8
ENDBRANCH   1   7
BRANCH   3  16
ATOM     16  C9  UNL     1       2.329   0.270  -1.212  1.00  0.00     0.117 C   
BRANCH  16  17
ATOM     17  N3  UNL     1       1.933   1.473  -0.388  1.00  0.00     0.249 N   
ATOM     18  H10 UNL     1       2.291   2.347  -0.780  1.00  0.00     0.199 HD  
ATOM     19  H11 UNL     1       2.379   1.363   0.535  1.00  0.00     0.199 HD  
BRANCH  17  20
ATOM     20  C10 UNL     1       0.468   1.638  -0.156  1.00  0.00     0.164 C   
BRANCH  20  21
ATOM     21  C11 UNL     1       0.210   2.848   0.696  1.00  0.00    -0.002 A   
ATOM     22  C12 UNL     1       0.216   2.737   2.107  1.00  0.00     0.012 A   
ATOM     23  C16 UNL     1       0.018   4.107   0.101  1.00  0.00     0.045 A   
ATOM     24  C13 UNL     1       0.022   3.862   2.917  1.00  0.00     0.037 A   
ATOM     25  C15 UNL     1      -0.169   5.194   0.928  1.00  0.00     0.109 A   
ATOM     26  C14 UNL     1      -0.168   5.076   2.296  1.00  0.00     0.108 A   
ATOM     27  O2  UNL     1      -0.366   6.474   0.517  1.00  0.00    -0.316 OA  
ATOM     28  O3  UNL     1      -0.366   6.267   2.919  1.00  0.00    -0.316 OA  
ATOM     29  C17 UNL     1      -0.516   7.150   1.787  1.00  0.00     0.337 C   
ENDBRANCH  20  21
ENDBRANCH  17  20
ENDBRANCH  16  17
BRANCH  16  30
ATOM     30  C18 UNL     1       3.828   0.388  -1.607  1.00  0.00     0.037 C   
ATOM     31  C19 UNL     1       4.134   1.667  -2.397  1.00  0.00     0.014 C   
ATOM     32  C20 UNL     1       4.280  -0.815  -2.450  1.00  0.00     0.014 C   
ENDBRANCH  16  30
ENDBRANCH   3  16
TORSDOF 8
