REMARK SMILES c1cc2cc(Cn3cc([C@@H]([NH2+]Cc4ccc5c(c4)OCO5)C4CCCCC4)nn3)ccc2[nH]1
REMARK SMILES IDX 7 1 8 2 9 3 28 4 29 5 6 7 5 8 1 9 2 10 33 11 3 12 32 13 4 14
REMARK SMILES IDX 31 15 30 16 10 18 11 19 12 22 13 23 14 24 18 25 15 26 17 27
REMARK SMILES IDX 16 28 19 29 21 30 20 31 22 32 23 33 27 34 24 35 26 36 25 37
REMARK H PARENT 8 6 33 17 11 20 11 21
ROOT
ATOM     1   N1  UNL     1       0.532   2.606   1.490  1.00  0.00    -0.208 N   
ATOM     2   C7  UNL     1      -0.518   1.750   1.294  1.00  0.00     0.046 A   
ATOM     3   C8  UNL     1      -0.287   1.221   0.044  1.00  0.00     0.127 A   
ATOM     4   N3  UNL     1       0.839   1.799  -0.487  1.00  0.00    -0.132 NA  
ATOM     5   N4  UNL     1       1.320   2.655   0.399  1.00  0.00    -0.076 NA  
ATOM     6   H6  UNL     1      -1.270   1.578   2.051  1.00  0.00     0.083 HD  
ENDROOT
BRANCH   1   7
ATOM     7   C6  UNL     1       0.853   3.381   2.676  1.00  0.00     0.169 C   
BRANCH   7   8
ATOM     8   C5  UNL     1       1.313   2.483   3.798  1.00  0.00    -0.028 A   
ATOM     9   C1  UNL     1       1.289   0.237   7.847  1.00  0.00     0.072 A   
ATOM     10  C2  UNL     1       0.418   1.126   7.261  1.00  0.00     0.025 A   
ATOM     11  N5  UNL     1       2.340   0.051   6.987  1.00  0.00    -0.321 N   
ATOM     12  C3  UNL     1       0.954   1.487   5.993  1.00  0.00    -0.003 A   
ATOM     13  C26 UNL     1       2.158   0.800   5.845  1.00  0.00     0.037 A   
ATOM     14  C4  UNL     1       0.527   2.341   4.957  1.00  0.00     0.015 A   
ATOM     15  C25 UNL     1       2.965   0.927   4.710  1.00  0.00     0.024 A   
ATOM     16  C24 UNL     1       2.523   1.780   3.694  1.00  0.00     0.007 A   
ATOM     17  H30 UNL     1       3.139  -0.542   7.166  1.00  0.00     0.152 HD  
ENDBRANCH   7   8
ENDBRANCH   1   7
BRANCH   3  18
ATOM     18  C9  UNL     1      -1.029   0.187  -0.745  1.00  0.00     0.117 C   
BRANCH  18  19
ATOM     19  N2  UNL     1      -0.493   0.130  -2.151  1.00  0.00     0.249 N   
ATOM     20  H8  UNL     1      -0.562  -0.801  -2.567  1.00  0.00     0.199 HD  
ATOM     21  H9  UNL     1       0.519   0.328  -2.085  1.00  0.00     0.199 HD  
BRANCH  19  22
ATOM     22  C10 UNL     1      -1.066   1.134  -3.087  1.00  0.00     0.164 C   
BRANCH  22  23
ATOM     23  C11 UNL     1      -0.335   1.110  -4.398  1.00  0.00    -0.002 A   
ATOM     24  C12 UNL     1       0.738   2.004  -4.631  1.00  0.00     0.012 A   
ATOM     25  C16 UNL     1      -0.671   0.159  -5.378  1.00  0.00     0.045 A   
ATOM     26  C13 UNL     1       1.448   1.974  -5.835  1.00  0.00     0.037 A   
ATOM     27  C15 UNL     1       0.059   0.147  -6.549  1.00  0.00     0.109 A   
ATOM     28  C14 UNL     1       1.083   1.035  -6.774  1.00  0.00     0.108 A   
ATOM     29  O1  UNL     1      -0.120  -0.714  -7.586  1.00  0.00    -0.316 OA  
ATOM     30  O2  UNL     1       1.667   0.857  -7.987  1.00  0.00    -0.316 OA  
ATOM     31  C17 UNL     1       0.908  -0.261  -8.497  1.00  0.00     0.337 C   
ENDBRANCH  22  23
ENDBRANCH  19  22
ENDBRANCH  18  19
BRANCH  18  32
ATOM     32  C18 UNL     1      -0.971  -1.216  -0.086  1.00  0.00     0.043 C   
ATOM     33  C19 UNL     1      -2.014  -2.172  -0.703  1.00  0.00     0.010 C   
ATOM     34  C23 UNL     1       0.429  -1.863  -0.106  1.00  0.00     0.010 C   
ATOM     35  C20 UNL     1      -2.009  -3.533  -0.010  1.00  0.00     0.001 C   
ATOM     36  C22 UNL     1       0.425  -3.226   0.585  1.00  0.00     0.001 C   
ATOM     37  C21 UNL     1      -0.620  -4.162  -0.015  1.00  0.00     0.000 C   
ENDBRANCH  18  32
ENDBRANCH   3  18
TORSDOF 7
