REMARK SMILES Cc1ccsc1[C@H](O)Cn1cc([C@@H]([NH2+]Cc2ccc3c(c2)OCO3)C2CCCC2)nn1
REMARK SMILES IDX 10 1 11 2 12 3 30 4 31 5 9 7 7 8 6 9 2 10 3 11 4 12 5 13
REMARK SMILES IDX 1 14 8 15 13 17 14 18 15 21 16 22 17 23 21 24 18 25 20 26
REMARK SMILES IDX 19 27 22 28 24 29 23 30 25 31 26 32 29 33 27 34 28 35
REMARK H PARENT 11 6 8 16 14 19 14 20
ROOT
ATOM     1   N1  UNL     1       1.890  -1.254   1.355  1.00  0.00    -0.209 N   
ATOM     2   C8  UNL     1       1.042  -2.115   0.721  1.00  0.00     0.045 A   
ATOM     3   C9  UNL     1       0.533  -1.370  -0.320  1.00  0.00     0.127 A   
ATOM     4   N3  UNL     1       1.048  -0.100  -0.256  1.00  0.00    -0.132 NA  
ATOM     5   N4  UNL     1       1.877  -0.043   0.769  1.00  0.00    -0.076 NA  
ATOM     6   H10 UNL     1       0.910  -3.139   1.040  1.00  0.00     0.083 HD  
ENDROOT
BRANCH   1   7
ATOM     7   C7  UNL     1       2.805  -1.524   2.444  1.00  0.00     0.171 C   
BRANCH   7   8
ATOM     8   C6  UNL     1       2.267  -1.006   3.777  1.00  0.00     0.171 C   
BRANCH   8   9
ATOM     9   C5  UNL     1       3.382  -0.776   4.773  1.00  0.00     0.022 A   
ATOM     10  C2  UNL     1       3.900   0.440   5.202  1.00  0.00    -0.038 A   
ATOM     11  C3  UNL     1       5.010   0.242   6.084  1.00  0.00     0.011 A   
ATOM     12  C4  UNL     1       5.264  -1.083   6.330  1.00  0.00     0.046 A   
ATOM     13  S1  UNL     1       4.198  -2.107   5.486  1.00  0.00    -0.099 S   
ATOM     14  C1  UNL     1       3.407   1.794   4.794  1.00  0.00     0.045 C   
ENDBRANCH   8   9
BRANCH   8  15
ATOM     15  O1  UNL     1       1.335  -1.954   4.323  1.00  0.00    -0.386 OA  
ATOM     16  H7  UNL     1       1.498  -1.998   5.290  1.00  0.00     0.211 HD  
ENDBRANCH   8  15
ENDBRANCH   7   8
ENDBRANCH   1   7
BRANCH   3  17
ATOM     17  C10 UNL     1      -0.439  -1.703  -1.412  1.00  0.00     0.117 C   
BRANCH  17  18
ATOM     18  N2  UNL     1      -1.157  -0.435  -1.816  1.00  0.00     0.249 N   
ATOM     19  H12 UNL     1      -0.438   0.309  -1.796  1.00  0.00     0.199 HD  
ATOM     20  H13 UNL     1      -1.508  -0.458  -2.778  1.00  0.00     0.199 HD  
BRANCH  18  21
ATOM     21  C11 UNL     1      -2.257  -0.006  -0.907  1.00  0.00     0.164 C   
BRANCH  21  22
ATOM     22  C12 UNL     1      -2.581   1.444  -1.131  1.00  0.00    -0.002 A   
ATOM     23  C13 UNL     1      -1.897   2.437  -0.392  1.00  0.00     0.012 A   
ATOM     24  C17 UNL     1      -3.496   1.827  -2.125  1.00  0.00     0.045 A   
ATOM     25  C14 UNL     1      -2.127   3.794  -0.628  1.00  0.00     0.037 A   
ATOM     26  C16 UNL     1      -3.700   3.175  -2.333  1.00  0.00     0.109 A   
ATOM     27  C15 UNL     1      -3.035   4.131  -1.606  1.00  0.00     0.108 A   
ATOM     28  O2  UNL     1      -4.531   3.715  -3.263  1.00  0.00    -0.316 OA  
ATOM     29  O3  UNL     1      -3.365   5.393  -1.982  1.00  0.00    -0.316 OA  
ATOM     30  C18 UNL     1      -4.336   5.128  -3.017  1.00  0.00     0.337 C   
ENDBRANCH  21  22
ENDBRANCH  18  21
ENDBRANCH  17  18
BRANCH  17  31
ATOM     31  C19 UNL     1       0.269  -2.283  -2.655  1.00  0.00     0.043 C   
ATOM     32  C20 UNL     1       0.931  -3.640  -2.407  1.00  0.00     0.010 C   
ATOM     33  C23 UNL     1      -0.667  -2.586  -3.833  1.00  0.00     0.010 C   
ATOM     34  C21 UNL     1       1.199  -4.160  -3.809  1.00  0.00     0.001 C   
ATOM     35  C22 UNL     1       0.003  -3.704  -4.631  1.00  0.00     0.001 C   
ENDBRANCH  17  31
ENDBRANCH   3  17
TORSDOF 9
