REMARK SMILES Cc1ccsc1[C@@H](O)Cn1cc([C@@H]([NH2+]Cc2ccc3c(c2)OCO3)C2CCCC2)nn1
REMARK SMILES IDX 10 1 11 2 12 3 30 4 31 5 9 7 7 8 6 9 2 10 3 11 4 12 5 13
REMARK SMILES IDX 1 14 8 15 13 17 14 18 15 21 16 22 17 23 21 24 18 25 20 26
REMARK SMILES IDX 19 27 22 28 24 29 23 30 25 31 26 32 29 33 27 34 28 35
REMARK H PARENT 11 6 8 16 14 19 14 20
ROOT
ATOM     1   N1  UNL     1       2.787  -0.289   1.707  1.00  0.00    -0.209 N   
ATOM     2   C8  UNL     1       2.485   0.351   0.537  1.00  0.00     0.045 A   
ATOM     3   C9  UNL     1       1.150   0.658   0.666  1.00  0.00     0.127 A   
ATOM     4   N3  UNL     1       0.705   0.239   1.893  1.00  0.00    -0.132 NA  
ATOM     5   N4  UNL     1       1.719  -0.327   2.526  1.00  0.00    -0.076 NA  
ATOM     6   H10 UNL     1       3.211   0.476  -0.255  1.00  0.00     0.083 HD  
ENDROOT
BRANCH   1   7
ATOM     7   C7  UNL     1       4.048  -0.871   2.114  1.00  0.00     0.171 C   
BRANCH   7   8
ATOM     8   C6  UNL     1       4.375  -2.200   1.427  1.00  0.00     0.171 C   
BRANCH   8   9
ATOM     9   C5  UNL     1       3.325  -3.275   1.612  1.00  0.00     0.022 A   
ATOM     10  C2  UNL     1       3.194  -4.154   2.682  1.00  0.00    -0.038 A   
ATOM     11  C3  UNL     1       2.072  -5.029   2.504  1.00  0.00     0.011 A   
ATOM     12  C4  UNL     1       1.397  -4.800   1.329  1.00  0.00     0.046 A   
ATOM     13  S1  UNL     1       2.101  -3.537   0.430  1.00  0.00    -0.099 S   
ATOM     14  C1  UNL     1       4.091  -4.204   3.877  1.00  0.00     0.045 C   
ENDBRANCH   8   9
BRANCH   8  15
ATOM     15  O1  UNL     1       4.609  -1.997   0.030  1.00  0.00    -0.386 OA  
ATOM     16  H7  UNL     1       4.785  -2.878  -0.350  1.00  0.00     0.211 HD  
ENDBRANCH   8  15
ENDBRANCH   7   8
ENDBRANCH   1   7
BRANCH   3  17
ATOM     17  C10 UNL     1       0.172   1.243  -0.299  1.00  0.00     0.117 C   
BRANCH  17  18
ATOM     18  N2  UNL     1      -1.099   0.431  -0.243  1.00  0.00     0.249 N   
ATOM     19  H12 UNL     1      -1.298   0.276   0.758  1.00  0.00     0.199 HD  
ATOM     20  H13 UNL     1      -1.905   0.937  -0.619  1.00  0.00     0.199 HD  
BRANCH  18  21
ATOM     21  C11 UNL     1      -1.016  -0.908  -0.890  1.00  0.00     0.164 C   
BRANCH  21  22
ATOM     22  C12 UNL     1      -2.257  -1.707  -0.612  1.00  0.00    -0.002 A   
ATOM     23  C13 UNL     1      -3.372  -1.630  -1.480  1.00  0.00     0.012 A   
ATOM     24  C17 UNL     1      -2.333  -2.498   0.548  1.00  0.00     0.045 A   
ATOM     25  C14 UNL     1      -4.546  -2.338  -1.202  1.00  0.00     0.037 A   
ATOM     26  C16 UNL     1      -3.504  -3.184   0.790  1.00  0.00     0.109 A   
ATOM     27  C15 UNL     1      -4.580  -3.104  -0.058  1.00  0.00     0.108 A   
ATOM     28  O2  UNL     1      -3.742  -3.992   1.856  1.00  0.00    -0.316 OA  
ATOM     29  O3  UNL     1      -5.633  -3.850   0.368  1.00  0.00    -0.316 OA  
ATOM     30  C18 UNL     1      -5.093  -4.424   1.577  1.00  0.00     0.337 C   
ENDBRANCH  21  22
ENDBRANCH  18  21
ENDBRANCH  17  18
BRANCH  17  31
ATOM     31  C19 UNL     1      -0.163   2.709   0.029  1.00  0.00     0.043 C   
ATOM     32  C20 UNL     1       1.048   3.643  -0.059  1.00  0.00     0.010 C   
ATOM     33  C23 UNL     1      -1.143   3.364  -0.953  1.00  0.00     0.010 C   
ATOM     34  C21 UNL     1       0.425   5.030  -0.088  1.00  0.00     0.001 C   
ATOM     35  C22 UNL     1      -0.886   4.867  -0.850  1.00  0.00     0.001 C   
ENDBRANCH  17  31
ENDBRANCH   3  17
TORSDOF 9
