REMARK SMILES c1cc2c(cc1C[NH2+][C@H](c1cn(Cc3ccc4c(c3)CNC4)nn1)C1CCCCC1)OCO2
REMARK SMILES IDX 10 1 11 2 12 3 23 4 24 5 9 7 8 8 7 11 6 12 1 13 2 14 3 15
REMARK SMILES IDX 5 16 4 17 33 18 31 19 32 20 25 21 26 22 30 23 27 24 29 25
REMARK SMILES IDX 28 26 13 27 14 28 15 29 19 30 16 31 18 32 17 33 20 34 22 35
REMARK SMILES IDX 21 36
REMARK H PARENT 11 6 8 9 8 10 21 37
ROOT
ATOM     1   C9  UNL     1      -0.494   0.489   1.264  1.00  0.00     0.127 A   
ATOM     2   C10 UNL     1      -1.267   1.605   1.498  1.00  0.00     0.046 A   
ATOM     3   N2  UNL     1      -2.536   1.201   1.184  1.00  0.00    -0.208 N   
ATOM     4   N4  UNL     1      -2.559  -0.112   0.884  1.00  0.00    -0.076 NA  
ATOM     5   N5  UNL     1      -1.314  -0.554   0.909  1.00  0.00    -0.132 NA  
ATOM     6   H9  UNL     1      -1.040   2.622   1.784  1.00  0.00     0.083 HD  
ENDROOT
BRANCH   1   7
ATOM     7   C8  UNL     1       0.982   0.262   1.346  1.00  0.00     0.117 C   
BRANCH   7   8
ATOM     8   N1  UNL     1       1.259  -1.213   1.512  1.00  0.00     0.249 N   
ATOM     9   H6  UNL     1       0.614  -1.704   0.872  1.00  0.00     0.199 HD  
ATOM     10  H7  UNL     1       2.207  -1.462   1.209  1.00  0.00     0.199 HD  
BRANCH   8  11
ATOM     11  C7  UNL     1       1.018  -1.762   2.874  1.00  0.00     0.164 C   
BRANCH  11  12
ATOM     12  C6  UNL     1       1.123  -3.261   2.855  1.00  0.00    -0.002 A   
ATOM     13  C1  UNL     1      -0.002  -4.043   2.496  1.00  0.00     0.012 A   
ATOM     14  C2  UNL     1       0.089  -5.436   2.414  1.00  0.00     0.037 A   
ATOM     15  C3  UNL     1       1.307  -6.018   2.684  1.00  0.00     0.108 A   
ATOM     16  C5  UNL     1       2.350  -3.892   3.123  1.00  0.00     0.045 A   
ATOM     17  C4  UNL     1       2.405  -5.267   3.029  1.00  0.00     0.109 A   
ATOM     18  O2  UNL     1       1.581  -7.347   2.642  1.00  0.00    -0.316 OA  
ATOM     19  O1  UNL     1       3.509  -6.030   3.243  1.00  0.00    -0.316 OA  
ATOM     20  C26 UNL     1       2.978  -7.354   3.004  1.00  0.00     0.337 C   
ENDBRANCH  11  12
ENDBRANCH   8  11
ENDBRANCH   7   8
BRANCH   7  21
ATOM     21  C20 UNL     1       1.776   0.764   0.109  1.00  0.00     0.043 C   
ATOM     22  C21 UNL     1       1.321   0.137  -1.225  1.00  0.00     0.010 C   
ATOM     23  C25 UNL     1       1.767   2.302   0.004  1.00  0.00     0.010 C   
ATOM     24  C22 UNL     1       2.160   0.640  -2.399  1.00  0.00     0.001 C   
ATOM     25  C24 UNL     1       2.614   2.793  -1.169  1.00  0.00     0.001 C   
ATOM     26  C23 UNL     1       2.163   2.163  -2.483  1.00  0.00     0.000 C   
ENDBRANCH   7  21
ENDBRANCH   1   7
BRANCH   3  27
ATOM     27  C11 UNL     1      -3.745   2.004   1.110  1.00  0.00     0.169 C   
BRANCH  27  28
ATOM     28  C12 UNL     1      -3.691   2.934  -0.077  1.00  0.00    -0.028 A   
ATOM     29  C13 UNL     1      -3.491   4.321   0.108  1.00  0.00     0.006 A   
ATOM     30  C17 UNL     1      -3.804   2.419  -1.381  1.00  0.00     0.010 A   
ATOM     31  C14 UNL     1      -3.393   5.186  -0.985  1.00  0.00     0.006 A   
ATOM     32  C16 UNL     1      -3.710   3.291  -2.451  1.00  0.00    -0.029 A   
ATOM     33  C15 UNL     1      -3.505   4.653  -2.256  1.00  0.00    -0.030 A   
ATOM     34  C18 UNL     1      -3.760   3.004  -3.914  1.00  0.00     0.117 C   
ATOM     35  C19 UNL     1      -3.406   5.332  -3.580  1.00  0.00     0.117 C   
ATOM     36  N3  UNL     1      -3.850   4.327  -4.579  1.00  0.00    -0.309 NA  
ATOM     37  H17 UNL     1      -4.841   4.504  -4.750  1.00  0.00     0.123 HD  
ENDBRANCH  27  28
ENDBRANCH   3  27
TORSDOF 7
