REMARK SMILES Cc1ccc(CCn2cc([C@@H]([NH2+]Cc3ccc4c(c3)OCO4)C(C)(C)C)nn2)c(O)c1
REMARK SMILES IDX 8 1 9 2 10 3 27 4 28 5 7 7 6 8 5 9 2 10 3 11 31 12 4 13
REMARK SMILES IDX 29 14 1 15 30 16 11 18 12 19 13 22 14 23 15 24 19 25 16 26
REMARK SMILES IDX 18 27 17 28 20 29 22 30 21 31 23 32 24 33 25 34 26 35
REMARK H PARENT 9 6 30 17 12 20 12 21
ROOT
ATOM     1   N1  UNL     1      -2.085   0.537   2.389  1.00  0.00    -0.212 N   
ATOM     2   C8  UNL     1      -2.397   0.619   1.061  1.00  0.00     0.045 A   
ATOM     3   C9  UNL     1      -1.732  -0.448   0.501  1.00  0.00     0.127 A   
ATOM     4   N3  UNL     1      -1.074  -1.137   1.487  1.00  0.00    -0.132 NA  
ATOM     5   N4  UNL     1      -1.307  -0.531   2.639  1.00  0.00    -0.076 NA  
ATOM     6   H10 UNL     1      -2.985   1.431   0.656  1.00  0.00     0.083 HD  
ENDROOT
BRANCH   1   7
ATOM     7   C7  UNL     1      -2.389   1.493   3.432  1.00  0.00     0.139 C   
BRANCH   7   8
ATOM     8   C6  UNL     1      -1.163   2.296   3.874  1.00  0.00     0.059 C   
BRANCH   8   9
ATOM     9   C5  UNL     1      -0.439   3.011   2.752  1.00  0.00    -0.016 A   
ATOM     10  C2  UNL     1       0.962   4.336   0.689  1.00  0.00    -0.049 A   
ATOM     11  C3  UNL     1       1.581   3.322   1.428  1.00  0.00     0.004 A   
ATOM     12  C24 UNL     1      -0.356   4.696   0.998  1.00  0.00     0.036 A   
ATOM     13  C4  UNL     1       0.886   2.663   2.445  1.00  0.00     0.007 A   
ATOM     14  C23 UNL     1      -1.041   4.037   2.019  1.00  0.00     0.075 A   
ATOM     15  C1  UNL     1       1.726   5.091  -0.359  1.00  0.00     0.044 C   
BRANCH  14  16
ATOM     16  O3  UNL     1      -2.325   4.393   2.320  1.00  0.00    -0.361 OA  
ATOM     17  H30 UNL     1      -2.490   5.288   1.962  1.00  0.00     0.218 HD  
ENDBRANCH  14  16
ENDBRANCH   8   9
ENDBRANCH   7   8
ENDBRANCH   1   7
BRANCH   3  18
ATOM     18  C10 UNL     1      -1.516  -0.824  -0.931  1.00  0.00     0.120 C   
BRANCH  18  19
ATOM     19  N2  UNL     1      -0.044  -1.104  -1.124  1.00  0.00     0.250 N   
ATOM     20  H12 UNL     1       0.234  -1.741  -0.362  1.00  0.00     0.199 HD  
ATOM     21  H13 UNL     1       0.151  -1.597  -1.998  1.00  0.00     0.199 HD  
BRANCH  19  22
ATOM     22  C11 UNL     1       0.843   0.092  -1.034  1.00  0.00     0.164 C   
BRANCH  22  23
ATOM     23  C12 UNL     1       2.282  -0.316  -1.180  1.00  0.00    -0.002 A   
ATOM     24  C13 UNL     1       2.912  -0.287  -2.447  1.00  0.00     0.012 A   
ATOM     25  C17 UNL     1       2.992  -0.789  -0.060  1.00  0.00     0.045 A   
ATOM     26  C14 UNL     1       4.233  -0.723  -2.601  1.00  0.00     0.037 A   
ATOM     27  C16 UNL     1       4.293  -1.210  -0.245  1.00  0.00     0.109 A   
ATOM     28  C15 UNL     1       4.895  -1.181  -1.480  1.00  0.00     0.108 A   
ATOM     29  O1  UNL     1       5.112  -1.702   0.721  1.00  0.00    -0.316 OA  
ATOM     30  O2  UNL     1       6.168  -1.653  -1.445  1.00  0.00    -0.316 OA  
ATOM     31  C18 UNL     1       6.311  -1.967  -0.042  1.00  0.00     0.337 C   
ENDBRANCH  22  23
ENDBRANCH  19  22
ENDBRANCH  18  19
BRANCH  18  32
ATOM     32  C19 UNL     1      -2.380  -2.034  -1.425  1.00  0.00     0.010 C   
ATOM     33  C20 UNL     1      -2.199  -2.235  -2.948  1.00  0.00     0.017 C   
ATOM     34  C21 UNL     1      -3.879  -1.744  -1.184  1.00  0.00     0.017 C   
ATOM     35  C22 UNL     1      -2.021  -3.357  -0.720  1.00  0.00     0.017 C   
ENDBRANCH  18  32
ENDBRANCH   3  18
TORSDOF 9
