REMARK SMILES CC(C)(C)[C@H]([NH2+]Cc1ccc2c(c1)OCO2)c1cn([C@H](CO)c2cccc(O)c2)nn1
REMARK SMILES IDX 17 1 18 2 19 3 30 4 31 5 5 7 2 8 1 9 3 10 4 11 6 12 7 15
REMARK SMILES IDX 8 16 9 17 13 18 10 19 12 20 11 21 14 22 16 23 15 24 20 25
REMARK SMILES IDX 21 26 22 27 23 29 24 30 29 31 25 32 27 33 26 34 28 35
REMARK H PARENT 18 6 6 13 6 14 22 28 28 36
ROOT
ATOM     1   C14 UNL     1      -1.308   0.911  -0.864  1.00  0.00     0.127 A   
ATOM     2   C15 UNL     1      -2.211   0.129  -0.186  1.00  0.00     0.046 A   
ATOM     3   N2  UNL     1      -2.947  -0.471  -1.173  1.00  0.00    -0.202 N   
ATOM     4   N3  UNL     1      -2.509  -0.087  -2.390  1.00  0.00    -0.075 NA  
ATOM     5   N4  UNL     1      -1.517   0.768  -2.214  1.00  0.00    -0.132 NA  
ATOM     6   H20 UNL     1      -2.394  -0.065   0.862  1.00  0.00     0.083 HD  
ENDROOT
BRANCH   1   7
ATOM     7   C5  UNL     1      -0.167   1.755  -0.382  1.00  0.00     0.120 C   
BRANCH   7   8
ATOM     8   C2  UNL     1      -0.554   3.234  -0.038  1.00  0.00     0.010 C   
ATOM     9   C1  UNL     1      -1.668   3.259   1.032  1.00  0.00     0.017 C   
ATOM     10  C3  UNL     1      -1.046   4.021  -1.268  1.00  0.00     0.017 C   
ATOM     11  C4  UNL     1       0.658   3.980   0.566  1.00  0.00     0.017 C   
ENDBRANCH   7   8
BRANCH   7  12
ATOM     12  N1  UNL     1       0.917   1.724  -1.443  1.00  0.00     0.250 N   
ATOM     13  H11 UNL     1       0.424   1.812  -2.344  1.00  0.00     0.199 HD  
ATOM     14  H12 UNL     1       1.548   2.524  -1.370  1.00  0.00     0.199 HD  
BRANCH  12  15
ATOM     15  C6  UNL     1       1.724   0.470  -1.505  1.00  0.00     0.164 C   
BRANCH  15  16
ATOM     16  C7  UNL     1       2.757   0.399  -0.414  1.00  0.00    -0.002 A   
ATOM     17  C8  UNL     1       2.608  -0.515   0.656  1.00  0.00     0.012 A   
ATOM     18  C12 UNL     1       3.873   1.254  -0.443  1.00  0.00     0.045 A   
ATOM     19  C9  UNL     1       3.553  -0.576   1.685  1.00  0.00     0.037 A   
ATOM     20  C11 UNL     1       4.783   1.171   0.589  1.00  0.00     0.109 A   
ATOM     21  C10 UNL     1       4.629   0.283   1.622  1.00  0.00     0.108 A   
ATOM     22  O1  UNL     1       5.907   1.926   0.713  1.00  0.00    -0.316 OA  
ATOM     23  O2  UNL     1       5.640   0.360   2.526  1.00  0.00    -0.316 OA  
ATOM     24  C13 UNL     1       6.466   1.383   1.930  1.00  0.00     0.337 C   
ENDBRANCH  15  16
ENDBRANCH  12  15
ENDBRANCH   7  12
ENDBRANCH   1   7
BRANCH   3  25
ATOM     25  C16 UNL     1      -4.022  -1.459  -1.053  1.00  0.00     0.155 C   
BRANCH  25  26
ATOM     26  C17 UNL     1      -5.365  -0.757  -0.765  1.00  0.00     0.185 C   
BRANCH  26  27
ATOM     27  O3  UNL     1      -5.342  -0.004   0.448  1.00  0.00    -0.394 OA  
ATOM     28  H24 UNL     1      -6.227   0.391   0.560  1.00  0.00     0.210 HD  
ENDBRANCH  26  27
ENDBRANCH  25  26
BRANCH  25  29
ATOM     29  C18 UNL     1      -3.600  -2.596  -0.129  1.00  0.00    -0.021 A   
ATOM     30  C19 UNL     1      -4.211  -2.853   1.108  1.00  0.00     0.006 A   
ATOM     31  C23 UNL     1      -2.535  -3.429  -0.523  1.00  0.00     0.039 A   
ATOM     32  C20 UNL     1      -3.770  -3.901   1.924  1.00  0.00     0.003 A   
ATOM     33  C22 UNL     1      -2.100  -4.465   0.298  1.00  0.00     0.072 A   
ATOM     34  C21 UNL     1      -2.710  -4.711   1.520  1.00  0.00     0.033 A   
BRANCH  33  35
ATOM     35  O4  UNL     1      -1.052  -5.216  -0.143  1.00  0.00    -0.361 OA  
ATOM     36  H28 UNL     1      -0.963  -5.996   0.433  1.00  0.00     0.218 HD  
ENDBRANCH  33  35
ENDBRANCH  25  29
ENDBRANCH   3  25
TORSDOF 10
