REMARK SMILES CC(C)(C)[C@H]([NH2+]Cc1ccc2c(c1)OCO2)c1cn([C@@H](CO)c2cccc(O)c2)nn1
REMARK SMILES IDX 17 1 18 2 19 3 30 4 31 5 5 7 2 8 1 9 3 10 4 11 6 12 7 15
REMARK SMILES IDX 8 16 9 17 13 18 10 19 12 20 11 21 14 22 16 23 15 24 20 25
REMARK SMILES IDX 21 26 22 27 23 29 24 30 29 31 25 32 27 33 26 34 28 35
REMARK H PARENT 18 6 6 13 6 14 22 28 28 36
ROOT
ATOM     1   C14 UNL     1       0.085  -0.095  -0.392  1.00  0.00     0.127 A   
ATOM     2   C15 UNL     1      -0.255   1.179  -0.784  1.00  0.00     0.046 A   
ATOM     3   N2  UNL     1      -1.619   1.141  -0.901  1.00  0.00    -0.202 N   
ATOM     4   N3  UNL     1      -2.093  -0.068  -0.530  1.00  0.00    -0.075 NA  
ATOM     5   N4  UNL     1      -1.059  -0.834  -0.226  1.00  0.00    -0.132 NA  
ATOM     6   H20 UNL     1       0.315   2.072  -1.000  1.00  0.00     0.083 HD  
ENDROOT
BRANCH   1   7
ATOM     7   C5  UNL     1       1.414  -0.705  -0.070  1.00  0.00     0.120 C   
BRANCH   7   8
ATOM     8   C2  UNL     1       2.097  -1.432  -1.281  1.00  0.00     0.010 C   
ATOM     9   C1  UNL     1       3.518  -1.903  -0.893  1.00  0.00     0.017 C   
ATOM     10  C3  UNL     1       1.298  -2.657  -1.769  1.00  0.00     0.017 C   
ATOM     11  C4  UNL     1       2.259  -0.454  -2.468  1.00  0.00     0.017 C   
ENDBRANCH   7   8
BRANCH   7  12
ATOM     12  N1  UNL     1       1.236  -1.662   1.086  1.00  0.00     0.250 N   
ATOM     13  H11 UNL     1       2.008  -2.327   1.169  1.00  0.00     0.199 HD  
ATOM     14  H12 UNL     1       0.395  -2.221   0.876  1.00  0.00     0.199 HD  
BRANCH  12  15
ATOM     15  C6  UNL     1       1.013  -1.018   2.411  1.00  0.00     0.164 C   
BRANCH  15  16
ATOM     16  C7  UNL     1       0.819  -2.061   3.476  1.00  0.00    -0.002 A   
ATOM     17  C8  UNL     1       1.911  -2.495   4.263  1.00  0.00     0.012 A   
ATOM     18  C12 UNL     1      -0.446  -2.649   3.659  1.00  0.00     0.045 A   
ATOM     19  C9  UNL     1       1.747  -3.493   5.230  1.00  0.00     0.037 A   
ATOM     20  C11 UNL     1      -0.572  -3.631   4.619  1.00  0.00     0.109 A   
ATOM     21  C10 UNL     1       0.492  -4.041   5.383  1.00  0.00     0.108 A   
ATOM     22  O1  UNL     1      -1.716  -4.298   4.922  1.00  0.00    -0.316 OA  
ATOM     23  O2  UNL     1       0.153  -5.016   6.265  1.00  0.00    -0.316 OA  
ATOM     24  C13 UNL     1      -1.256  -5.164   5.984  1.00  0.00     0.337 C   
ENDBRANCH  15  16
ENDBRANCH  12  15
ENDBRANCH   7  12
ENDBRANCH   1   7
BRANCH   3  25
ATOM     25  C16 UNL     1      -2.541   2.192  -1.339  1.00  0.00     0.155 C   
BRANCH  25  26
ATOM     26  C17 UNL     1      -2.950   3.087  -0.152  1.00  0.00     0.185 C   
BRANCH  26  27
ATOM     27  O3  UNL     1      -1.832   3.686   0.508  1.00  0.00    -0.394 OA  
ATOM     28  H24 UNL     1      -2.195   4.274   1.198  1.00  0.00     0.210 HD  
ENDBRANCH  26  27
ENDBRANCH  25  26
BRANCH  25  29
ATOM     29  C18 UNL     1      -2.019   2.884  -2.594  1.00  0.00    -0.021 A   
ATOM     30  C19 UNL     1      -1.485   4.182  -2.595  1.00  0.00     0.006 A   
ATOM     31  C23 UNL     1      -2.055   2.183  -3.815  1.00  0.00     0.039 A   
ATOM     32  C20 UNL     1      -1.013   4.762  -3.777  1.00  0.00     0.003 A   
ATOM     33  C22 UNL     1      -1.582   2.769  -4.985  1.00  0.00     0.072 A   
ATOM     34  C21 UNL     1      -1.061   4.056  -4.978  1.00  0.00     0.033 A   
BRANCH  33  35
ATOM     35  O4  UNL     1      -1.648   2.033  -6.130  1.00  0.00    -0.361 OA  
ATOM     36  H28 UNL     1      -1.381   2.592  -6.878  1.00  0.00     0.218 HD  
ENDBRANCH  33  35
ENDBRANCH  25  29
ENDBRANCH   3  25
TORSDOF 10
