REMARK SMILES Cc1c(F)cccc1Cn1cc([C@@H]([NH2+]Cc2ccc3c(c2)OCO3)C(C)(C)C)nn1
REMARK SMILES IDX 10 1 11 2 12 3 29 4 30 5 9 7 8 8 2 9 3 10 5 11 7 12 6 13
REMARK SMILES IDX 1 14 4 15 13 16 14 17 15 20 16 21 17 22 21 23 18 24 20 25
REMARK SMILES IDX 19 26 22 27 24 28 23 29 25 30 26 31 27 32 28 33
REMARK H PARENT 11 6 14 18 14 19
ROOT
ATOM     1   N1  UNL     1      -1.416   1.667  -2.251  1.00  0.00    -0.208 N   
ATOM     2   C9  UNL     1      -0.087   1.453  -2.502  1.00  0.00     0.046 A   
ATOM     3   C10 UNL     1       0.141   0.178  -2.034  1.00  0.00     0.127 A   
ATOM     4   N3  UNL     1      -1.029  -0.330  -1.528  1.00  0.00    -0.132 NA  
ATOM     5   N4  UNL     1      -1.972   0.586  -1.671  1.00  0.00    -0.076 NA  
ATOM     6   H9  UNL     1       0.545   2.206  -2.953  1.00  0.00     0.083 HD  
ENDROOT
BRANCH   1   7
ATOM     7   C8  UNL     1      -2.214   2.853  -2.525  1.00  0.00     0.169 C   
BRANCH   7   8
ATOM     8   C7  UNL     1      -1.641   4.081  -1.850  1.00  0.00    -0.023 A   
ATOM     9   C2  UNL     1      -1.694   4.274  -0.451  1.00  0.00    -0.010 A   
ATOM     10  C3  UNL     1      -1.089   5.417   0.094  1.00  0.00     0.126 A   
ATOM     11  C4  UNL     1      -0.476   6.374  -0.706  1.00  0.00     0.039 A   
ATOM     12  C6  UNL     1      -1.022   5.062  -2.652  1.00  0.00     0.006 A   
ATOM     13  C5  UNL     1      -0.447   6.200  -2.084  1.00  0.00     0.003 A   
ATOM     14  C1  UNL     1      -2.332   3.284   0.484  1.00  0.00     0.048 C   
ATOM     15  F1  UNL     1      -1.087   5.599   1.422  1.00  0.00    -0.207 F   
ENDBRANCH   7   8
ENDBRANCH   1   7
BRANCH   3  16
ATOM     16  C11 UNL     1       1.399  -0.631  -1.927  1.00  0.00     0.120 C   
BRANCH  16  17
ATOM     17  N2  UNL     1       1.345  -1.433  -0.647  1.00  0.00     0.250 N   
ATOM     18  H11 UNL     1       2.005  -2.216  -0.642  1.00  0.00     0.199 HD  
ATOM     19  H12 UNL     1       0.404  -1.852  -0.601  1.00  0.00     0.199 HD  
BRANCH  17  20
ATOM     20  C12 UNL     1       1.532  -0.648   0.606  1.00  0.00     0.164 C   
BRANCH  20  21
ATOM     21  C13 UNL     1       1.397  -1.539   1.808  1.00  0.00    -0.002 A   
ATOM     22  C14 UNL     1       2.540  -2.125   2.400  1.00  0.00     0.012 A   
ATOM     23  C18 UNL     1       0.121  -1.837   2.319  1.00  0.00     0.045 A   
ATOM     24  C15 UNL     1       2.418  -2.989   3.494  1.00  0.00     0.037 A   
ATOM     25  C17 UNL     1       0.037  -2.692   3.397  1.00  0.00     0.109 A   
ATOM     26  C16 UNL     1       1.152  -3.252   3.968  1.00  0.00     0.108 A   
ATOM     27  O1  UNL     1      -1.112  -3.083   4.009  1.00  0.00    -0.316 OA  
ATOM     28  O2  UNL     1       0.848  -4.064   5.014  1.00  0.00    -0.316 OA  
ATOM     29  C19 UNL     1      -0.590  -3.937   5.052  1.00  0.00     0.337 C   
ENDBRANCH  20  21
ENDBRANCH  17  20
ENDBRANCH  16  17
BRANCH  16  30
ATOM     30  C20 UNL     1       1.663  -1.575  -3.152  1.00  0.00     0.010 C   
ATOM     31  C21 UNL     1       1.698  -0.752  -4.460  1.00  0.00     0.017 C   
ATOM     32  C22 UNL     1       0.593  -2.674  -3.300  1.00  0.00     0.017 C   
ATOM     33  C23 UNL     1       3.044  -2.258  -3.016  1.00  0.00     0.017 C   
ENDBRANCH  16  30
ENDBRANCH   3  16
TORSDOF 7
