REMARK SMILES COc1c(Cn2cc([C@@H]([NH2+]Cc3ccc4c(c3)OCO4)C(C)C)nn2)ccc(F)c1F
REMARK SMILES IDX 6 1 7 2 8 3 24 4 25 5 5 7 4 8 3 9 30 10 26 11 28 12 27 13
REMARK SMILES IDX 31 14 29 15 2 16 1 17 9 18 10 19 11 22 12 23 13 24 17 25
REMARK SMILES IDX 14 26 16 27 15 28 18 29 20 30 19 31 21 32 22 33 23 34
REMARK H PARENT 7 6 10 20 10 21
ROOT
ATOM     1   N1  UNL     1       0.060  -1.265  -1.873  1.00  0.00    -0.208 N   
ATOM     2   C5  UNL     1       0.783  -1.319  -0.714  1.00  0.00     0.046 A   
ATOM     3   C6  UNL     1      -0.162  -1.558   0.257  1.00  0.00     0.127 A   
ATOM     4   N3  UNL     1      -1.395  -1.673  -0.332  1.00  0.00    -0.132 NA  
ATOM     5   N4  UNL     1      -1.246  -1.501  -1.635  1.00  0.00    -0.076 NA  
ATOM     6   H6  UNL     1       1.850  -1.143  -0.690  1.00  0.00     0.083 HD  
ENDROOT
BRANCH   1   7
ATOM     7   C4  UNL     1       0.534  -0.981  -3.217  1.00  0.00     0.172 C   
BRANCH   7   8
ATOM     8   C3  UNL     1       0.174   0.427  -3.640  1.00  0.00     0.005 A   
ATOM     9   C2  UNL     1       0.887   1.545  -3.154  1.00  0.00     0.118 A   
ATOM     10  C22 UNL     1       0.497   2.828  -3.559  1.00  0.00     0.189 A   
ATOM     11  C19 UNL     1      -0.907   0.622  -4.522  1.00  0.00     0.011 A   
ATOM     12  C21 UNL     1      -0.571   2.998  -4.435  1.00  0.00     0.161 A   
ATOM     13  C20 UNL     1      -1.276   1.905  -4.920  1.00  0.00     0.043 A   
ATOM     14  F2  UNL     1       1.122   3.924  -3.106  1.00  0.00    -0.201 F   
ATOM     15  F1  UNL     1      -0.939   4.231  -4.809  1.00  0.00    -0.204 F   
BRANCH   9  16
ATOM     16  O1  UNL     1       1.911   1.253  -2.287  1.00  0.00    -0.346 OA  
ATOM     17  C1  UNL     1       2.796   2.315  -1.940  1.00  0.00     0.203 C   
ENDBRANCH   9  16
ENDBRANCH   7   8
ENDBRANCH   1   7
BRANCH   3  18
ATOM     18  C7  UNL     1      -0.042  -1.606   1.745  1.00  0.00     0.117 C   
BRANCH  18  19
ATOM     19  N2  UNL     1      -1.234  -0.946   2.399  1.00  0.00     0.249 N   
ATOM     20  H8  UNL     1      -1.226  -1.108   3.408  1.00  0.00     0.199 HD  
ATOM     21  H9  UNL     1      -2.069  -1.409   2.016  1.00  0.00     0.199 HD  
BRANCH  19  22
ATOM     22  C8  UNL     1      -1.404   0.519   2.142  1.00  0.00     0.164 C   
BRANCH  22  23
ATOM     23  C9  UNL     1      -0.258   1.348   2.653  1.00  0.00    -0.002 A   
ATOM     24  C10 UNL     1      -0.093   1.568   4.041  1.00  0.00     0.012 A   
ATOM     25  C14 UNL     1       0.681   1.880   1.751  1.00  0.00     0.045 A   
ATOM     26  C11 UNL     1       0.994   2.303   4.527  1.00  0.00     0.037 A   
ATOM     27  C13 UNL     1       1.742   2.596   2.263  1.00  0.00     0.109 A   
ATOM     28  C12 UNL     1       1.895   2.801   3.611  1.00  0.00     0.108 A   
ATOM     29  O2  UNL     1       2.741   3.162   1.535  1.00  0.00    -0.316 OA  
ATOM     30  O3  UNL     1       3.004   3.529   3.903  1.00  0.00    -0.316 OA  
ATOM     31  C15 UNL     1       3.518   3.792   2.580  1.00  0.00     0.337 C   
ENDBRANCH  22  23
ENDBRANCH  19  22
ENDBRANCH  18  19
BRANCH  18  32
ATOM     32  C16 UNL     1       0.137  -3.053   2.279  1.00  0.00     0.037 C   
ATOM     33  C17 UNL     1      -1.104  -3.941   2.131  1.00  0.00     0.014 C   
ATOM     34  C18 UNL     1       0.600  -3.059   3.742  1.00  0.00     0.014 C   
ENDBRANCH  18  32
ENDBRANCH   3  18
TORSDOF 8
