REMARK SMILES Cc1cnccc1CCn1cc([C@@H]([NH2+]Cc2ccc3c(c2)OCO3)C2CCCC2)nn1
REMARK SMILES IDX 10 1 11 2 12 3 30 4 31 5 9 7 8 8 7 9 2 10 3 11 4 12 6 13
REMARK SMILES IDX 5 14 1 15 13 16 14 17 15 20 16 21 17 22 21 23 18 24 20 25
REMARK SMILES IDX 19 26 22 27 24 28 23 29 25 30 26 31 29 32 27 33 28 34
REMARK H PARENT 11 6 14 18 14 19
ROOT
ATOM     1   N2  UNL     1       0.488  -2.859  -2.064  1.00  0.00    -0.212 N   
ATOM     2   C9  UNL     1      -0.275  -2.740  -0.932  1.00  0.00     0.045 A   
ATOM     3   C10 UNL     1       0.617  -2.314   0.028  1.00  0.00     0.127 A   
ATOM     4   N4  UNL     1       1.882  -2.332  -0.510  1.00  0.00    -0.132 NA  
ATOM     5   N5  UNL     1       1.791  -2.688  -1.782  1.00  0.00    -0.076 NA  
ATOM     6   H11 UNL     1      -1.351  -2.835  -0.960  1.00  0.00     0.083 HD  
ENDROOT
BRANCH   1   7
ATOM     7   C8  UNL     1       0.014  -2.828  -3.434  1.00  0.00     0.139 C   
BRANCH   7   8
ATOM     8   C7  UNL     1       0.165  -1.446  -4.105  1.00  0.00     0.057 C   
BRANCH   8   9
ATOM     9   C6  UNL     1      -0.123  -0.278  -3.177  1.00  0.00    -0.040 A   
ATOM     10  C2  UNL     1      -1.405   0.028  -2.696  1.00  0.00    -0.029 A   
ATOM     11  C3  UNL     1      -1.489   0.936  -1.640  1.00  0.00     0.114 A   
ATOM     12  N1  UNL     1      -0.425   1.540  -1.054  1.00  0.00    -0.264 NA  
ATOM     13  C5  UNL     1       0.967   0.463  -2.692  1.00  0.00     0.024 A   
ATOM     14  C4  UNL     1       0.765   1.368  -1.667  1.00  0.00     0.111 A   
ATOM     15  C1  UNL     1      -2.656  -0.621  -3.210  1.00  0.00     0.046 C   
ENDBRANCH   8   9
ENDBRANCH   7   8
ENDBRANCH   1   7
BRANCH   3  16
ATOM     16  C11 UNL     1       0.444  -1.705   1.386  1.00  0.00     0.117 C   
BRANCH  16  17
ATOM     17  N3  UNL     1       0.750  -0.235   1.244  1.00  0.00     0.249 N   
ATOM     18  H13 UNL     1       1.617  -0.189   0.690  1.00  0.00     0.199 HD  
ATOM     19  H14 UNL     1       0.065   0.239   0.630  1.00  0.00     0.199 HD  
BRANCH  17  20
ATOM     20  C12 UNL     1       0.960   0.555   2.477  1.00  0.00     0.164 C   
BRANCH  20  21
ATOM     21  C13 UNL     1       1.644   1.857   2.166  1.00  0.00    -0.002 A   
ATOM     22  C14 UNL     1       0.885   3.000   1.822  1.00  0.00     0.012 A   
ATOM     23  C18 UNL     1       3.047   1.930   2.154  1.00  0.00     0.045 A   
ATOM     24  C15 UNL     1       1.511   4.205   1.485  1.00  0.00     0.037 A   
ATOM     25  C17 UNL     1       3.633   3.132   1.816  1.00  0.00     0.109 A   
ATOM     26  C16 UNL     1       2.888   4.239   1.492  1.00  0.00     0.108 A   
ATOM     27  O1  UNL     1       4.970   3.370   1.755  1.00  0.00    -0.316 OA  
ATOM     28  O2  UNL     1       3.660   5.313   1.189  1.00  0.00    -0.316 OA  
ATOM     29  C19 UNL     1       4.983   4.764   1.372  1.00  0.00     0.337 C   
ENDBRANCH  20  21
ENDBRANCH  17  20
ENDBRANCH  16  17
BRANCH  16  30
ATOM     30  C20 UNL     1      -0.900  -1.908   2.104  1.00  0.00     0.043 C   
ATOM     31  C21 UNL     1      -2.137  -1.235   1.487  1.00  0.00     0.010 C   
ATOM     32  C24 UNL     1      -1.305  -3.371   2.315  1.00  0.00     0.010 C   
ATOM     33  C22 UNL     1      -3.296  -2.214   1.685  1.00  0.00     0.001 C   
ATOM     34  C23 UNL     1      -2.784  -3.266   2.656  1.00  0.00     0.001 C   
ENDBRANCH  16  30
ENDBRANCH   3  16
TORSDOF 8
