REMARK SMILES c1nc(-n2cc([C@@H]([NH2+]Cc3ccc4c(c3)OCO4)C3CCCC3)nn2)c2[nH]ccc2n1
REMARK SMILES IDX 7 1 6 2 4 3 5 4 25 5 24 6 3 7 1 8 2 9 31 10 30 11 26 12
REMARK SMILES IDX 29 13 27 14 28 15 8 17 9 20 10 21 11 22 15 23 12 24 14 25
REMARK SMILES IDX 13 26 16 27 18 28 17 29 19 30 20 31 23 32 21 33 22 34
REMARK H PARENT 27 16 8 18 8 19
ROOT
ATOM     1   C5  UNL     1       1.242   0.949  -0.442  1.00  0.00     0.117 C   
ENDROOT
BRANCH   1   2
ATOM     2   C4  UNL     1       0.553   0.781   0.876  1.00  0.00     0.128 A   
ATOM     3   N2  UNL     1      -0.053   0.513   2.959  1.00  0.00    -0.160 N   
ATOM     4   C3  UNL     1       1.057   0.627   2.146  1.00  0.00     0.137 A   
ATOM     5   N5  UNL     1      -1.174   0.559   2.193  1.00  0.00    -0.069 NA  
ATOM     6   N4  UNL     1      -0.815   0.725   0.929  1.00  0.00    -0.131 NA  
BRANCH   3   7
ATOM     7   C2  UNL     1      -0.070   0.356   4.361  1.00  0.00     0.171 A   
ATOM     8   C1  UNL     1       1.067   0.127   6.370  1.00  0.00     0.224 A   
ATOM     9   N1  UNL     1       1.110   0.284   5.032  1.00  0.00    -0.217 NA  
ATOM     10  N7  UNL     1      -0.017   0.030   7.147  1.00  0.00    -0.235 NA  
ATOM     11  C22 UNL     1      -1.181   0.106   6.473  1.00  0.00     0.091 A   
ATOM     12  C19 UNL     1      -1.246   0.267   5.095  1.00  0.00     0.099 A   
ATOM     13  C21 UNL     1      -2.506   0.036   6.962  1.00  0.00     0.046 A   
ATOM     14  N6  UNL     1      -2.580   0.302   4.756  1.00  0.00    -0.316 N   
ATOM     15  C20 UNL     1      -3.352   0.158   5.880  1.00  0.00     0.074 A   
ATOM     16  H22 UNL     1      -2.933   0.410   3.812  1.00  0.00     0.152 HD  
ENDBRANCH   3   7
ENDBRANCH   1   2
BRANCH   1  17
ATOM     17  N3  UNL     1       0.465   0.229  -1.517  1.00  0.00     0.249 N   
ATOM     18  H4  UNL     1       0.722   0.553  -2.454  1.00  0.00     0.199 HD  
ATOM     19  H5  UNL     1      -0.528   0.477  -1.393  1.00  0.00     0.199 HD  
BRANCH  17  20
ATOM     20  C6  UNL     1       0.568  -1.257  -1.489  1.00  0.00     0.164 C   
BRANCH  20  21
ATOM     21  C7  UNL     1      -0.305  -1.862  -2.551  1.00  0.00    -0.002 A   
ATOM     22  C8  UNL     1      -1.645  -2.211  -2.255  1.00  0.00     0.012 A   
ATOM     23  C12 UNL     1       0.182  -2.029  -3.858  1.00  0.00     0.045 A   
ATOM     24  C9  UNL     1      -2.485  -2.734  -3.244  1.00  0.00     0.037 A   
ATOM     25  C11 UNL     1      -0.674  -2.544  -4.809  1.00  0.00     0.109 A   
ATOM     26  C10 UNL     1      -1.969  -2.889  -4.511  1.00  0.00     0.108 A   
ATOM     27  O1  UNL     1      -0.364  -2.761  -6.115  1.00  0.00    -0.316 OA  
ATOM     28  O2  UNL     1      -2.637  -3.372  -5.590  1.00  0.00    -0.316 OA  
ATOM     29  C13 UNL     1      -1.610  -3.312  -6.603  1.00  0.00     0.337 C   
ENDBRANCH  20  21
ENDBRANCH  17  20
ENDBRANCH   1  17
BRANCH   1  30
ATOM     30  C14 UNL     1       1.369   2.433  -0.842  1.00  0.00     0.043 C   
ATOM     31  C15 UNL     1       2.213   3.259   0.134  1.00  0.00     0.010 C   
ATOM     32  C18 UNL     1       2.086   2.667  -2.180  1.00  0.00     0.010 C   
ATOM     33  C16 UNL     1       2.510   4.525  -0.653  1.00  0.00     0.001 C   
ATOM     34  C17 UNL     1       2.736   4.047  -2.082  1.00  0.00     0.001 C   
ENDBRANCH   1  30
TORSDOF 6
