REMARK SMILES Cc1cc(CO)nc(-n2cc([C@H](CC(C)C)[NH2+]Cc3ccc4c(c3)OCO4)nn2)c1
REMARK SMILES IDX 9 1 10 2 11 3 28 4 29 5 8 6 2 7 3 8 30 9 4 10 7 11 1 12 5 13
REMARK SMILES IDX 6 14 12 16 13 17 14 18 15 19 16 20 17 21 18 24 19 25 20 26
REMARK SMILES IDX 24 27 21 28 23 29 22 30 25 31 27 32 26 33
REMARK H PARENT 6 15 17 22 17 23
ROOT
ATOM     1   N2  UNL     1       0.103   2.121  -0.877  1.00  0.00    -0.162 N   
ATOM     2   C7  UNL     1      -0.286   0.983  -1.558  1.00  0.00     0.137 A   
ATOM     3   C8  UNL     1       0.227  -0.065  -0.828  1.00  0.00     0.127 A   
ATOM     4   N4  UNL     1       0.921   0.438   0.241  1.00  0.00    -0.131 NA  
ATOM     5   N5  UNL     1       0.844   1.759   0.203  1.00  0.00    -0.070 NA  
ENDROOT
BRANCH   1   6
ATOM     6   C6  UNL     1      -0.196   3.466  -1.218  1.00  0.00     0.146 A   
ATOM     7   C2  UNL     1      -0.034   5.818  -0.759  1.00  0.00    -0.046 A   
ATOM     8   C3  UNL     1      -0.812   6.050  -1.896  1.00  0.00     0.030 A   
ATOM     9   C22 UNL     1       0.269   4.499  -0.408  1.00  0.00     0.050 A   
ATOM     10  C4  UNL     1      -1.239   4.968  -2.659  1.00  0.00     0.068 A   
ATOM     11  N1  UNL     1      -0.941   3.677  -2.338  1.00  0.00    -0.233 NA  
ATOM     12  C1  UNL     1       0.416   6.960   0.104  1.00  0.00     0.044 C   
BRANCH  10  13
ATOM     13  C5  UNL     1      -2.076   5.196  -3.899  1.00  0.00     0.212 C   
BRANCH  13  14
ATOM     14  O1  UNL     1      -2.351   3.959  -4.559  1.00  0.00    -0.390 OA  
ATOM     15  H7  UNL     1      -1.933   3.278  -3.998  1.00  0.00     0.211 HD  
ENDBRANCH  13  14
ENDBRANCH  10  13
ENDBRANCH   1   6
BRANCH   3  16
ATOM     16  C9  UNL     1       0.148  -1.541  -1.045  1.00  0.00     0.114 C   
BRANCH  16  17
ATOM     17  C10 UNL     1      -1.280  -2.115  -0.932  1.00  0.00     0.064 C   
BRANCH  17  18
ATOM     18  C11 UNL     1      -1.893  -2.300   0.475  1.00  0.00    -0.012 C   
ATOM     19  C12 UNL     1      -2.102  -0.989   1.230  1.00  0.00     0.007 C   
ATOM     20  C13 UNL     1      -3.238  -3.026   0.347  1.00  0.00     0.007 C   
ENDBRANCH  17  18
ENDBRANCH  16  17
BRANCH  16  21
ATOM     21  N3  UNL     1       1.060  -2.297  -0.122  1.00  0.00     0.249 N   
ATOM     22  H19 UNL     1       0.980  -1.863   0.809  1.00  0.00     0.199 HD  
ATOM     23  H20 UNL     1       0.763  -3.272  -0.015  1.00  0.00     0.199 HD  
BRANCH  21  24
ATOM     24  C14 UNL     1       2.504  -2.278  -0.494  1.00  0.00     0.164 C   
BRANCH  24  25
ATOM     25  C15 UNL     1       3.323  -2.960   0.565  1.00  0.00    -0.002 A   
ATOM     26  C16 UNL     1       3.618  -4.341   0.468  1.00  0.00     0.012 A   
ATOM     27  C20 UNL     1       3.752  -2.237   1.692  1.00  0.00     0.045 A   
ATOM     28  C17 UNL     1       4.339  -4.993   1.474  1.00  0.00     0.037 A   
ATOM     29  C19 UNL     1       4.461  -2.910   2.664  1.00  0.00     0.109 A   
ATOM     30  C18 UNL     1       4.746  -4.249   2.559  1.00  0.00     0.108 A   
ATOM     31  O2  UNL     1       4.947  -2.364   3.809  1.00  0.00    -0.316 OA  
ATOM     32  O3  UNL     1       5.448  -4.715   3.625  1.00  0.00    -0.316 OA  
ATOM     33  C21 UNL     1       5.595  -3.510   4.407  1.00  0.00     0.337 C   
ENDBRANCH  24  25
ENDBRANCH  21  24
ENDBRANCH  16  21
ENDBRANCH   3  16
TORSDOF 9
