REMARK SMILES O=C(Cn1cc([C@@H]([NH2+]Cc2ccc3c(c2)OCO3)C2CCCCC2)nn1)c1cccc(F)c1
REMARK SMILES IDX 4 1 5 2 6 3 25 4 26 5 3 7 2 8 1 9 27 10 28 11 33 12 29 13
REMARK SMILES IDX 31 14 30 15 32 16 7 17 8 18 9 21 10 22 11 23 15 24 12 25
REMARK SMILES IDX 14 26 13 27 16 28 18 29 17 30 19 31 20 32 24 33 21 34 23 35
REMARK SMILES IDX 22 36
REMARK H PARENT 5 6 8 19 8 20
ROOT
ATOM     1   N1  UNL     1       0.070  -0.521   2.107  1.00  0.00    -0.204 N   
ATOM     2   C3  UNL     1       0.485   0.409   1.197  1.00  0.00     0.046 A   
ATOM     3   C4  UNL     1      -0.570   0.507   0.319  1.00  0.00     0.127 A   
ATOM     4   N3  UNL     1      -1.573  -0.337   0.725  1.00  0.00    -0.132 NA  
ATOM     5   N4  UNL     1      -1.171  -0.957   1.821  1.00  0.00    -0.076 NA  
ATOM     6   H3  UNL     1       1.470   0.856   1.233  1.00  0.00     0.083 HD  
ENDROOT
BRANCH   1   7
ATOM     7   C2  UNL     1       0.814  -1.100   3.201  1.00  0.00     0.214 C   
BRANCH   7   8
ATOM     8   C1  UNL     1       1.550  -2.326   2.720  1.00  0.00     0.182 C   
ATOM     9   O1  UNL     1       2.417  -2.246   1.849  1.00  0.00    -0.292 OA  
BRANCH   8  10
ATOM     10  C20 UNL     1       1.232  -3.654   3.308  1.00  0.00     0.022 A   
ATOM     11  C21 UNL     1       2.245  -4.625   3.340  1.00  0.00     0.012 A   
ATOM     12  C25 UNL     1      -0.041  -3.967   3.791  1.00  0.00     0.051 A   
ATOM     13  C22 UNL     1       1.995  -5.890   3.877  1.00  0.00     0.004 A   
ATOM     14  C24 UNL     1      -0.274  -5.233   4.320  1.00  0.00     0.123 A   
ATOM     15  C23 UNL     1       0.729  -6.194   4.372  1.00  0.00     0.039 A   
ATOM     16  F1  UNL     1      -1.495  -5.531   4.782  1.00  0.00    -0.207 F   
ENDBRANCH   8  10
ENDBRANCH   7   8
ENDBRANCH   1   7
BRANCH   3  17
ATOM     17  C5  UNL     1      -0.707   1.257  -0.965  1.00  0.00     0.117 C   
BRANCH  17  18
ATOM     18  N2  UNL     1      -1.400   0.393  -1.998  1.00  0.00     0.249 N   
ATOM     19  H5  UNL     1      -2.256   0.037  -1.550  1.00  0.00     0.199 HD  
ATOM     20  H6  UNL     1      -1.684   0.960  -2.801  1.00  0.00     0.199 HD  
BRANCH  18  21
ATOM     21  C6  UNL     1      -0.638  -0.799  -2.481  1.00  0.00     0.164 C   
BRANCH  21  22
ATOM     22  C7  UNL     1       0.590  -0.433  -3.268  1.00  0.00    -0.002 A   
ATOM     23  C8  UNL     1       0.473   0.090  -4.578  1.00  0.00     0.012 A   
ATOM     24  C12 UNL     1       1.864  -0.582  -2.693  1.00  0.00     0.045 A   
ATOM     25  C9  UNL     1       1.608   0.467  -5.304  1.00  0.00     0.037 A   
ATOM     26  C11 UNL     1       2.962  -0.199  -3.436  1.00  0.00     0.109 A   
ATOM     27  C10 UNL     1       2.837   0.312  -4.704  1.00  0.00     0.108 A   
ATOM     28  O2  UNL     1       4.256  -0.267  -3.029  1.00  0.00    -0.316 OA  
ATOM     29  O3  UNL     1       4.038   0.625  -5.256  1.00  0.00    -0.316 OA  
ATOM     30  C13 UNL     1       4.941   0.215  -4.206  1.00  0.00     0.337 C   
ENDBRANCH  21  22
ENDBRANCH  18  21
ENDBRANCH  17  18
BRANCH  17  31
ATOM     31  C14 UNL     1      -1.478   2.599  -0.848  1.00  0.00     0.043 C   
ATOM     32  C15 UNL     1      -2.932   2.462  -0.353  1.00  0.00     0.010 C   
ATOM     33  C19 UNL     1      -0.713   3.614   0.025  1.00  0.00     0.010 C   
ATOM     34  C16 UNL     1      -3.637   3.817  -0.298  1.00  0.00     0.001 C   
ATOM     35  C18 UNL     1      -1.424   4.965   0.077  1.00  0.00     0.001 C   
ATOM     36  C17 UNL     1      -2.866   4.822   0.551  1.00  0.00     0.000 C   
ENDBRANCH  17  31
ENDBRANCH   3  17
TORSDOF 8
