REMARK SMILES Cc1ccc(C(=O)Cn2cc([C@@H]([NH2+]Cc3ccc4c(c3)OCO4)C(C)(C)C)nn2)c(C)c1
REMARK SMILES IDX 9 1 10 2 11 3 28 4 29 5 8 7 6 8 7 9 5 10 2 11 3 12 32 13
REMARK SMILES IDX 4 14 30 15 1 16 31 17 12 18 13 19 14 22 15 23 16 24 20 25
REMARK SMILES IDX 17 26 19 27 18 28 21 29 23 30 22 31 24 32 25 33 26 34 27 35
REMARK H PARENT 10 6 13 20 13 21
ROOT
ATOM     1   N1  UNL     1       1.348   1.032   1.987  1.00  0.00    -0.204 N   
ATOM     2   C8  UNL     1       1.240   0.352   0.806  1.00  0.00     0.046 A   
ATOM     3   C9  UNL     1       1.068   1.347  -0.132  1.00  0.00     0.127 A   
ATOM     4   N3  UNL     1       1.145   2.569   0.487  1.00  0.00    -0.132 NA  
ATOM     5   N4  UNL     1       1.321   2.363   1.782  1.00  0.00    -0.076 NA  
ATOM     6   H8  UNL     1       1.220  -0.728   0.757  1.00  0.00     0.083 HD  
ENDROOT
BRANCH   1   7
ATOM     7   C7  UNL     1       1.465   0.494   3.330  1.00  0.00     0.214 C   
BRANCH   7   8
ATOM     8   C6  UNL     1       0.242  -0.308   3.720  1.00  0.00     0.182 C   
ATOM     9   O1  UNL     1      -0.736  -0.447   2.987  1.00  0.00    -0.292 OA  
BRANCH   8  10
ATOM     10  C5  UNL     1       0.286  -1.000   5.040  1.00  0.00     0.022 A   
ATOM     11  C2  UNL     1       0.430  -2.252   7.552  1.00  0.00    -0.051 A   
ATOM     12  C3  UNL     1       0.792  -0.912   7.410  1.00  0.00     0.004 A   
ATOM     13  C25 UNL     1      -0.035  -2.953   6.434  1.00  0.00     0.007 A   
ATOM     14  C4  UNL     1       0.725  -0.288   6.164  1.00  0.00     0.012 A   
ATOM     15  C23 UNL     1      -0.104  -2.346   5.167  1.00  0.00    -0.040 A   
ATOM     16  C1  UNL     1       0.471  -2.916   8.899  1.00  0.00     0.044 C   
ATOM     17  C24 UNL     1      -0.618  -3.156   4.009  1.00  0.00     0.045 C   
ENDBRANCH   8  10
ENDBRANCH   7   8
ENDBRANCH   1   7
BRANCH   3  18
ATOM     18  C10 UNL     1       0.708   1.275  -1.583  1.00  0.00     0.120 C   
BRANCH  18  19
ATOM     19  N2  UNL     1      -0.323   2.350  -1.871  1.00  0.00     0.250 N   
ATOM     20  H10 UNL     1      -0.421   2.514  -2.875  1.00  0.00     0.199 HD  
ATOM     21  H11 UNL     1       0.045   3.216  -1.453  1.00  0.00     0.199 HD  
BRANCH  19  22
ATOM     22  C11 UNL     1      -1.680   2.131  -1.283  1.00  0.00     0.164 C   
BRANCH  22  23
ATOM     23  C12 UNL     1      -2.419   0.997  -1.940  1.00  0.00    -0.002 A   
ATOM     24  C13 UNL     1      -2.931   1.142  -3.252  1.00  0.00     0.012 A   
ATOM     25  C17 UNL     1      -2.575  -0.228  -1.266  1.00  0.00     0.045 A   
ATOM     26  C14 UNL     1      -3.589   0.083  -3.887  1.00  0.00     0.037 A   
ATOM     27  C16 UNL     1      -3.225  -1.252  -1.922  1.00  0.00     0.109 A   
ATOM     28  C15 UNL     1      -3.719  -1.101  -3.195  1.00  0.00     0.108 A   
ATOM     29  O2  UNL     1      -3.450  -2.497  -1.422  1.00  0.00    -0.316 OA  
ATOM     30  O3  UNL     1      -4.323  -2.228  -3.654  1.00  0.00    -0.316 OA  
ATOM     31  C18 UNL     1      -4.196  -3.096  -2.506  1.00  0.00     0.337 C   
ENDBRANCH  22  23
ENDBRANCH  19  22
ENDBRANCH  18  19
BRANCH  18  32
ATOM     32  C19 UNL     1       1.927   1.406  -2.559  1.00  0.00     0.010 C   
ATOM     33  C20 UNL     1       2.609   2.786  -2.489  1.00  0.00     0.017 C   
ATOM     34  C21 UNL     1       1.468   1.164  -4.017  1.00  0.00     0.017 C   
ATOM     35  C22 UNL     1       2.985   0.326  -2.236  1.00  0.00     0.017 C   
ENDBRANCH  18  32
ENDBRANCH   3  18
TORSDOF 8
