REMARK SMILES Cc1cc(N([O-])[O-])ccc1-n1cc([C@@H]([NH2+]Cc2ccc3c(c2)OCO3)C2CCCCC2)nn1
REMARK SMILES IDX 11 1 12 2 13 3 32 4 33 5 10 6 2 7 3 8 4 9 9 10 8 11 1 12
REMARK SMILES IDX 5 13 6 14 7 15 14 16 15 17 16 20 17 21 18 22 22 23 19 24
REMARK SMILES IDX 21 25 20 26 23 27 25 28 24 29 26 30 27 31 31 32 28 33 30 34
REMARK SMILES IDX 29 35
REMARK H PARENT 15 18 15 19
ROOT
ATOM     1   N2  UNL     1      -0.148   0.805   2.414  1.00  0.00    -0.180 N   
ATOM     2   C8  UNL     1       0.273  -0.300   1.699  1.00  0.00     0.135 A   
ATOM     3   C9  UNL     1       0.209   0.068   0.373  1.00  0.00     0.127 A   
ATOM     4   N4  UNL     1      -0.265   1.339   0.288  1.00  0.00    -0.131 NA  
ATOM     5   N5  UNL     1      -0.508   1.766   1.514  1.00  0.00    -0.071 NA  
ENDROOT
BRANCH   1   6
ATOM     6   C7  UNL     1      -0.263   1.044   3.822  1.00  0.00     0.061 A   
ATOM     7   C2  UNL     1       0.200   0.168   4.834  1.00  0.00    -0.025 A   
ATOM     8   C3  UNL     1      -0.006   0.525   6.189  1.00  0.00     0.036 A   
ATOM     9   C4  UNL     1      -0.632   1.729   6.539  1.00  0.00     0.118 A   
ATOM     10  C6  UNL     1      -0.888   2.256   4.204  1.00  0.00     0.028 A   
ATOM     11  C5  UNL     1      -1.071   2.601   5.547  1.00  0.00     0.033 A   
ATOM     12  C1  UNL     1       0.924  -1.132   4.611  1.00  0.00     0.046 C   
BRANCH   9  13
ATOM     13  N1  UNL     1      -0.817   2.074   7.955  1.00  0.00     0.092 N   
ATOM     14  O1  UNL     1      -1.337   3.168   8.216  1.00  0.00    -0.138 OA  
ATOM     15  O2  UNL     1      -0.438   1.252   8.800  1.00  0.00    -0.138 OA  
ENDBRANCH   9  13
ENDBRANCH   1   6
BRANCH   3  16
ATOM     16  C10 UNL     1       0.535  -0.688  -0.878  1.00  0.00     0.117 C   
BRANCH  16  17
ATOM     17  N3  UNL     1      -0.276  -0.175  -2.036  1.00  0.00     0.249 N   
ATOM     18  H9  UNL     1      -0.234   0.855  -2.003  1.00  0.00     0.199 HD  
ATOM     19  H10 UNL     1       0.129  -0.446  -2.938  1.00  0.00     0.199 HD  
BRANCH  17  20
ATOM     20  C11 UNL     1      -1.717  -0.555  -2.025  1.00  0.00     0.164 C   
BRANCH  20  21
ATOM     21  C12 UNL     1      -2.406  -0.045  -3.260  1.00  0.00    -0.002 A   
ATOM     22  C13 UNL     1      -2.638  -0.907  -4.359  1.00  0.00     0.012 A   
ATOM     23  C17 UNL     1      -2.786   1.306  -3.347  1.00  0.00     0.045 A   
ATOM     24  C14 UNL     1      -3.250  -0.434  -5.527  1.00  0.00     0.037 A   
ATOM     25  C16 UNL     1      -3.382   1.739  -4.513  1.00  0.00     0.109 A   
ATOM     26  C15 UNL     1      -3.613   0.894  -5.571  1.00  0.00     0.108 A   
ATOM     27  O3  UNL     1      -3.812   3.006  -4.755  1.00  0.00    -0.316 OA  
ATOM     28  O4  UNL     1      -4.228   1.519  -6.606  1.00  0.00    -0.316 OA  
ATOM     29  C18 UNL     1      -4.359   2.861  -6.086  1.00  0.00     0.337 C   
ENDBRANCH  20  21
ENDBRANCH  17  20
ENDBRANCH  16  17
BRANCH  16  30
ATOM     30  C19 UNL     1       2.052  -0.635  -1.211  1.00  0.00     0.043 C   
ATOM     31  C20 UNL     1       2.551   0.760  -1.640  1.00  0.00     0.010 C   
ATOM     32  C24 UNL     1       2.441  -1.685  -2.272  1.00  0.00     0.010 C   
ATOM     33  C21 UNL     1       4.055   0.760  -1.912  1.00  0.00     0.001 C   
ATOM     34  C23 UNL     1       3.945  -1.682  -2.542  1.00  0.00     0.001 C   
ATOM     35  C22 UNL     1       4.446  -0.297  -2.938  1.00  0.00     0.000 C   
ENDBRANCH  16  30
ENDBRANCH   3  16
TORSDOF 7
