REMARK SMILES CC(C)C[C@H]([NH2+]Cc1ccc2c(c1)OCO2)c1cn(Cc2cccc(CN)c2)nn1
REMARK SMILES IDX 17 1 18 2 19 3 29 4 30 5 5 7 4 8 2 9 1 10 3 11 6 12 7 15
REMARK SMILES IDX 8 16 9 17 13 18 10 19 12 20 11 21 14 22 16 23 15 24 20 25
REMARK SMILES IDX 21 26 22 27 28 28 23 29 25 30 24 31 26 32 27 33
REMARK H PARENT 18 6 6 13 6 14 27 34 27 35
ROOT
ATOM     1   C14 UNL     1      -1.364  -1.065  -0.531  1.00  0.00     0.127 A   
ATOM     2   C15 UNL     1      -2.365  -0.213  -0.133  1.00  0.00     0.046 A   
ATOM     3   N2  UNL     1      -2.780  -0.719   1.068  1.00  0.00    -0.208 N   
ATOM     4   N4  UNL     1      -2.083  -1.830   1.382  1.00  0.00    -0.076 NA  
ATOM     5   N5  UNL     1      -1.219  -2.054   0.405  1.00  0.00    -0.132 NA  
ATOM     6   H20 UNL     1      -2.782   0.694  -0.552  1.00  0.00     0.083 HD  
ENDROOT
BRANCH   1   7
ATOM     7   C5  UNL     1      -0.445  -1.026  -1.707  1.00  0.00     0.114 C   
BRANCH   7   8
ATOM     8   C4  UNL     1      -0.928  -1.989  -2.813  1.00  0.00     0.064 C   
BRANCH   8   9
ATOM     9   C2  UNL     1      -0.095  -2.022  -4.112  1.00  0.00    -0.012 C   
ATOM     10  C1  UNL     1       0.058  -0.641  -4.748  1.00  0.00     0.007 C   
ATOM     11  C3  UNL     1      -0.739  -2.986  -5.115  1.00  0.00     0.007 C   
ENDBRANCH   8   9
ENDBRANCH   7   8
BRANCH   7  12
ATOM     12  N1  UNL     1       0.943  -1.414  -1.273  1.00  0.00     0.249 N   
ATOM     13  H11 UNL     1       1.529  -1.698  -2.060  1.00  0.00     0.199 HD  
ATOM     14  H12 UNL     1       0.846  -2.246  -0.672  1.00  0.00     0.199 HD  
BRANCH  12  15
ATOM     15  C6  UNL     1       1.671  -0.382  -0.480  1.00  0.00     0.164 C   
BRANCH  15  16
ATOM     16  C7  UNL     1       3.040  -0.881  -0.112  1.00  0.00    -0.002 A   
ATOM     17  C8  UNL     1       4.088  -0.866  -1.066  1.00  0.00     0.012 A   
ATOM     18  C12 UNL     1       3.269  -1.424   1.165  1.00  0.00     0.045 A   
ATOM     19  C9  UNL     1       5.348  -1.391  -0.757  1.00  0.00     0.037 A   
ATOM     20  C11 UNL     1       4.524  -1.926   1.439  1.00  0.00     0.109 A   
ATOM     21  C10 UNL     1       5.533  -1.916   0.504  1.00  0.00     0.108 A   
ATOM     22  O1  UNL     1       4.910  -2.483   2.619  1.00  0.00    -0.316 OA  
ATOM     23  O2  UNL     1       6.681  -2.470   0.974  1.00  0.00    -0.316 OA  
ATOM     24  C13 UNL     1       6.288  -2.807   2.328  1.00  0.00     0.337 C   
ENDBRANCH  15  16
ENDBRANCH  12  15
ENDBRANCH   7  12
ENDBRANCH   1   7
BRANCH   3  25
ATOM     25  C16 UNL     1      -3.792  -0.203   1.978  1.00  0.00     0.169 C   
BRANCH  25  26
ATOM     26  C17 UNL     1      -3.622   1.278   2.211  1.00  0.00    -0.028 A   
ATOM     27  C18 UNL     1      -4.576   2.189   1.732  1.00  0.00     0.005 A   
ATOM     28  C23 UNL     1      -2.487   1.767   2.887  1.00  0.00     0.010 A   
ATOM     29  C19 UNL     1      -4.390   3.560   1.911  1.00  0.00     0.001 A   
ATOM     30  C21 UNL     1      -2.293   3.145   3.074  1.00  0.00    -0.034 A   
ATOM     31  C20 UNL     1      -3.251   4.038   2.571  1.00  0.00     0.005 A   
BRANCH  30  32
ATOM     32  C22 UNL     1      -1.056   3.652   3.773  1.00  0.00     0.113 C   
BRANCH  32  33
ATOM     33  N3  UNL     1       0.070   3.736   2.843  1.00  0.00    -0.327 NA  
ATOM     34  H28 UNL     1       0.863   4.132   3.353  1.00  0.00     0.119 HD  
ATOM     35  H29 UNL     1      -0.159   4.421   2.123  1.00  0.00     0.119 HD  
ENDBRANCH  32  33
ENDBRANCH  30  32
ENDBRANCH  25  26
ENDBRANCH   3  25
TORSDOF 10
