REMARK SMILES CC(C)C[C@H]([NH2+]Cc1ccc2c(c1)OCO2)c1cn(Cc2nn(C)c3c2CCC3)nn1
REMARK SMILES IDX 17 1 18 2 19 3 30 4 31 5 5 7 4 8 2 9 1 10 3 11 6 12 7 15
REMARK SMILES IDX 8 16 9 17 13 18 10 19 12 20 11 21 14 22 16 23 15 24 20 25
REMARK SMILES IDX 21 26 22 27 26 28 23 29 25 30 27 31 29 32 28 33 24 34
REMARK H PARENT 18 6 6 13 6 14
ROOT
ATOM     1   C14 UNL     1       0.695  -0.349  -0.886  1.00  0.00     0.127 A   
ATOM     2   C15 UNL     1      -0.533  -0.727  -1.379  1.00  0.00     0.046 A   
ATOM     3   N2  UNL     1      -1.086   0.441  -1.832  1.00  0.00    -0.206 N   
ATOM     4   N5  UNL     1      -0.216   1.464  -1.698  1.00  0.00    -0.076 NA  
ATOM     5   N6  UNL     1       0.870   0.995  -1.107  1.00  0.00    -0.132 NA  
ATOM     6   H20 UNL     1      -1.073  -1.664  -1.410  1.00  0.00     0.083 HD  
ENDROOT
BRANCH   1   7
ATOM     7   C5  UNL     1       1.762  -1.137  -0.204  1.00  0.00     0.114 C   
BRANCH   7   8
ATOM     8   C4  UNL     1       1.320  -1.764   1.135  1.00  0.00     0.064 C   
BRANCH   8   9
ATOM     9   C2  UNL     1       1.173  -0.845   2.370  1.00  0.00    -0.012 C   
ATOM     10  C1  UNL     1       0.907  -1.708   3.610  1.00  0.00     0.007 C   
ATOM     11  C3  UNL     1       0.058   0.191   2.234  1.00  0.00     0.007 C   
ENDBRANCH   8   9
ENDBRANCH   7   8
BRANCH   7  12
ATOM     12  N1  UNL     1       3.003  -0.311   0.024  1.00  0.00     0.249 N   
ATOM     13  H11 UNL     1       2.674   0.618   0.320  1.00  0.00     0.199 HD  
ATOM     14  H12 UNL     1       3.560  -0.701   0.789  1.00  0.00     0.199 HD  
BRANCH  12  15
ATOM     15  C6  UNL     1       3.881  -0.110  -1.166  1.00  0.00     0.164 C   
BRANCH  15  16
ATOM     16  C7  UNL     1       4.701  -1.330  -1.486  1.00  0.00    -0.002 A   
ATOM     17  C8  UNL     1       5.802  -1.687  -0.670  1.00  0.00     0.012 A   
ATOM     18  C12 UNL     1       4.362  -2.142  -2.583  1.00  0.00     0.045 A   
ATOM     19  C9  UNL     1       6.552  -2.837  -0.938  1.00  0.00     0.037 A   
ATOM     20  C11 UNL     1       5.122  -3.269  -2.818  1.00  0.00     0.109 A   
ATOM     21  C10 UNL     1       6.185  -3.608  -2.018  1.00  0.00     0.108 A   
ATOM     22  O1  UNL     1       4.925  -4.159  -3.826  1.00  0.00    -0.316 OA  
ATOM     23  O2  UNL     1       6.794  -4.752  -2.424  1.00  0.00    -0.316 OA  
ATOM     24  C13 UNL     1       6.009  -5.085  -3.589  1.00  0.00     0.337 C   
ENDBRANCH  15  16
ENDBRANCH  12  15
ENDBRANCH   7  12
ENDBRANCH   1   7
BRANCH   3  25
ATOM     25  C16 UNL     1      -2.398   0.643  -2.419  1.00  0.00     0.192 C   
BRANCH  25  26
ATOM     26  C17 UNL     1      -3.443   0.575  -1.364  1.00  0.00     0.083 A   
ATOM     27  N3  UNL     1      -3.955  -0.613  -0.968  1.00  0.00    -0.185 NA  
ATOM     28  C20 UNL     1      -4.037   1.624  -0.656  1.00  0.00    -0.004 A   
ATOM     29  N4  UNL     1      -4.897  -0.292  -0.039  1.00  0.00    -0.232 N   
ATOM     30  C19 UNL     1      -4.943   1.038   0.173  1.00  0.00     0.033 A   
ATOM     31  C21 UNL     1      -4.035   3.090  -0.513  1.00  0.00     0.039 C   
ATOM     32  C23 UNL     1      -5.713   1.962   1.017  1.00  0.00     0.054 C   
ATOM     33  C22 UNL     1      -4.904   3.287   0.782  1.00  0.00     0.011 C   
ATOM     34  C18 UNL     1      -5.692  -1.326   0.572  1.00  0.00     0.159 C   
ENDBRANCH  25  26
ENDBRANCH   3  25
TORSDOF 8
