REMARK SMILES c1nc(Cn2cc([C@@H]([NH2+]Cc3ccc4c(c3)OCO4)C3CCCCC3)nn2)cs1
REMARK SMILES IDX 8 1 7 2 5 3 6 4 27 5 26 6 4 8 3 9 1 10 2 11 29 12 28 13 9 14
REMARK SMILES IDX 10 17 11 18 12 19 16 20 13 21 15 22 14 23 17 24 19 25 18 26
REMARK SMILES IDX 20 27 21 28 25 29 22 30 24 31 23 32
REMARK H PARENT 6 7 9 15 9 16
ROOT
ATOM     1   C6  UNL     1       0.247  -0.838  -1.208  1.00  0.00     0.117 C   
ENDROOT
BRANCH   1   2
ATOM     2   C5  UNL     1      -0.919  -1.333  -0.415  1.00  0.00     0.127 A   
ATOM     3   N2  UNL     1      -2.479  -1.708   1.035  1.00  0.00    -0.206 N   
ATOM     4   C4  UNL     1      -1.661  -0.716   0.566  1.00  0.00     0.046 A   
ATOM     5   N5  UNL     1      -2.281  -2.854   0.354  1.00  0.00    -0.076 NA  
ATOM     6   N4  UNL     1      -1.332  -2.634  -0.543  1.00  0.00    -0.132 NA  
ATOM     7   H4  UNL     1      -1.646   0.273   1.005  1.00  0.00     0.083 HD  
BRANCH   3   8
ATOM     8   C3  UNL     1      -3.407  -1.648   2.150  1.00  0.00     0.190 C   
BRANCH   8   9
ATOM     9   C2  UNL     1      -2.650  -1.719   3.436  1.00  0.00     0.067 A   
ATOM     10  C1  UNL     1      -1.283  -0.880   4.967  1.00  0.00     0.156 A   
ATOM     11  N1  UNL     1      -1.852  -0.639   3.805  1.00  0.00    -0.252 NA  
ATOM     12  S1  UNL     1      -1.630  -2.403   5.670  1.00  0.00    -0.084 S   
ATOM     13  C21 UNL     1      -2.644  -2.770   4.336  1.00  0.00     0.072 A   
ENDBRANCH   8   9
ENDBRANCH   3   8
ENDBRANCH   1   2
BRANCH   1  14
ATOM     14  N3  UNL     1       1.357  -1.872  -1.172  1.00  0.00     0.249 N   
ATOM     15  H6  UNL     1       0.979  -2.721  -1.614  1.00  0.00     0.199 HD  
ATOM     16  H7  UNL     1       2.154  -1.558  -1.728  1.00  0.00     0.199 HD  
BRANCH  14  17
ATOM     17  C7  UNL     1       1.866  -2.271   0.179  1.00  0.00     0.164 C   
BRANCH  17  18
ATOM     18  C8  UNL     1       2.441  -1.127   0.968  1.00  0.00    -0.002 A   
ATOM     19  C9  UNL     1       3.651  -0.511   0.569  1.00  0.00     0.012 A   
ATOM     20  C13 UNL     1       1.764  -0.648   2.104  1.00  0.00     0.045 A   
ATOM     21  C10 UNL     1       4.176   0.570   1.284  1.00  0.00     0.037 A   
ATOM     22  C12 UNL     1       2.309   0.418   2.788  1.00  0.00     0.109 A   
ATOM     23  C11 UNL     1       3.480   1.012   2.388  1.00  0.00     0.108 A   
ATOM     24  O1  UNL     1       1.786   0.998   3.900  1.00  0.00    -0.316 OA  
ATOM     25  O2  UNL     1       3.841   2.043   3.195  1.00  0.00    -0.316 OA  
ATOM     26  C14 UNL     1       2.772   2.022   4.165  1.00  0.00     0.337 C   
ENDBRANCH  17  18
ENDBRANCH  14  17
ENDBRANCH   1  14
BRANCH   1  27
ATOM     27  C15 UNL     1      -0.132  -0.541  -2.692  1.00  0.00     0.043 C   
ATOM     28  C16 UNL     1      -1.237   0.539  -2.768  1.00  0.00     0.010 C   
ATOM     29  C20 UNL     1       1.083  -0.096  -3.537  1.00  0.00     0.010 C   
ATOM     30  C17 UNL     1      -1.606   0.904  -4.203  1.00  0.00     0.001 C   
ATOM     31  C19 UNL     1       0.700   0.283  -4.966  1.00  0.00     0.001 C   
ATOM     32  C18 UNL     1      -0.388   1.347  -5.000  1.00  0.00     0.000 C   
ENDBRANCH   1  27
TORSDOF 7
