REMARK SMILES CC(C)C[C@H]([NH2+]Cc1ccc2c(c1)OCO2)c1cn(C[C@H](O)c2ccco2)nn1
REMARK SMILES IDX 17 1 18 2 19 3 28 4 29 5 5 7 4 8 2 9 1 10 3 11 6 12 7 15
REMARK SMILES IDX 8 16 9 17 13 18 10 19 12 20 11 21 14 22 16 23 15 24 20 25
REMARK SMILES IDX 21 26 22 27 23 29 24 30 27 31 25 32 26 33
REMARK H PARENT 18 6 6 13 6 14 22 28
ROOT
ATOM     1   C14 UNL     1       1.383   1.040  -0.345  1.00  0.00     0.127 A   
ATOM     2   C15 UNL     1       1.731  -0.155  -0.935  1.00  0.00     0.045 A   
ATOM     3   N2  UNL     1       2.217  -0.903   0.098  1.00  0.00    -0.209 N   
ATOM     4   N3  UNL     1       2.196  -0.208   1.250  1.00  0.00    -0.076 NA  
ATOM     5   N4  UNL     1       1.685   0.984   0.991  1.00  0.00    -0.132 NA  
ATOM     6   H20 UNL     1       1.649  -0.540  -1.942  1.00  0.00     0.083 HD  
ENDROOT
BRANCH   1   7
ATOM     7   C5  UNL     1       0.717   2.248  -0.911  1.00  0.00     0.114 C   
BRANCH   7   8
ATOM     8   C4  UNL     1       1.631   3.107  -1.811  1.00  0.00     0.064 C   
BRANCH   8   9
ATOM     9   C2  UNL     1       2.659   4.051  -1.146  1.00  0.00    -0.012 C   
ATOM     10  C1  UNL     1       3.737   3.319  -0.349  1.00  0.00     0.007 C   
ATOM     11  C3  UNL     1       3.329   4.907  -2.229  1.00  0.00     0.007 C   
ENDBRANCH   8   9
ENDBRANCH   7   8
BRANCH   7  12
ATOM     12  N1  UNL     1       0.103   3.119   0.155  1.00  0.00     0.249 N   
ATOM     13  H11 UNL     1       0.835   3.274   0.861  1.00  0.00     0.199 HD  
ATOM     14  H12 UNL     1      -0.150   4.031  -0.237  1.00  0.00     0.199 HD  
BRANCH  12  15
ATOM     15  C6  UNL     1      -1.078   2.554   0.878  1.00  0.00     0.164 C   
BRANCH  15  16
ATOM     16  C7  UNL     1      -2.275   2.352  -0.010  1.00  0.00    -0.002 A   
ATOM     17  C8  UNL     1      -3.036   3.459  -0.455  1.00  0.00     0.012 A   
ATOM     18  C12 UNL     1      -2.625   1.056  -0.429  1.00  0.00     0.045 A   
ATOM     19  C9  UNL     1      -4.129   3.280  -1.310  1.00  0.00     0.037 A   
ATOM     20  C11 UNL     1      -3.706   0.915  -1.274  1.00  0.00     0.109 A   
ATOM     21  C10 UNL     1      -4.436   1.996  -1.702  1.00  0.00     0.108 A   
ATOM     22  O1  UNL     1      -4.170  -0.259  -1.777  1.00  0.00    -0.316 OA  
ATOM     23  O2  UNL     1      -5.455   1.639  -2.527  1.00  0.00    -0.316 OA  
ATOM     24  C13 UNL     1      -5.306   0.203  -2.546  1.00  0.00     0.337 C   
ENDBRANCH  15  16
ENDBRANCH  12  15
ENDBRANCH   7  12
ENDBRANCH   1   7
BRANCH   3  25
ATOM     25  C16 UNL     1       2.686  -2.270   0.073  1.00  0.00     0.172 C   
BRANCH  25  26
ATOM     26  C17 UNL     1       1.634  -3.257   0.571  1.00  0.00     0.187 C   
BRANCH  26  27
ATOM     27  O3  UNL     1       2.241  -4.544   0.709  1.00  0.00    -0.385 OA  
ATOM     28  H24 UNL     1       1.567  -5.137   1.087  1.00  0.00     0.211 HD  
ENDBRANCH  26  27
BRANCH  26  29
ATOM     29  C18 UNL     1       0.506  -3.408  -0.394  1.00  0.00     0.089 A   
ATOM     30  C19 UNL     1       0.299  -4.204  -1.503  1.00  0.00     0.034 A   
ATOM     31  O4  UNL     1      -0.581  -2.606  -0.190  1.00  0.00    -0.320 OA  
ATOM     32  C20 UNL     1      -0.989  -3.884  -1.992  1.00  0.00     0.028 A   
ATOM     33  C21 UNL     1      -1.487  -2.914  -1.155  1.00  0.00     0.136 A   
ENDBRANCH  26  29
ENDBRANCH  25  26
ENDBRANCH   3  25
TORSDOF 10
