REMARK SMILES CC(C)C[C@H]([NH2+]Cc1ccc2c(c1)OCO2)c1cn(C[C@@H](O)c2ccco2)nn1
REMARK SMILES IDX 17 1 18 2 19 3 28 4 29 5 5 7 4 8 2 9 1 10 3 11 6 12 7 15
REMARK SMILES IDX 8 16 9 17 13 18 10 19 12 20 11 21 14 22 16 23 15 24 20 25
REMARK SMILES IDX 21 26 22 27 23 29 24 30 27 31 25 32 26 33
REMARK H PARENT 18 6 6 13 6 14 22 28
ROOT
ATOM     1   C14 UNL     1       0.278   0.935   0.973  1.00  0.00     0.127 A   
ATOM     2   C15 UNL     1       0.936   1.622   1.968  1.00  0.00     0.045 A   
ATOM     3   N2  UNL     1      -0.073   2.128   2.740  1.00  0.00    -0.209 N   
ATOM     4   N3  UNL     1      -1.274   1.713   2.297  1.00  0.00    -0.076 NA  
ATOM     5   N4  UNL     1      -1.073   0.992   1.205  1.00  0.00    -0.132 NA  
ATOM     6   H20 UNL     1       1.978   1.834   2.168  1.00  0.00     0.083 HD  
ENDROOT
BRANCH   1   7
ATOM     7   C5  UNL     1       0.790   0.181  -0.207  1.00  0.00     0.114 C   
BRANCH   7   8
ATOM     8   C4  UNL     1       0.782   1.027  -1.496  1.00  0.00     0.064 C   
BRANCH   8   9
ATOM     9   C2  UNL     1       1.673   2.288  -1.466  1.00  0.00    -0.012 C   
ATOM     10  C1  UNL     1       1.510   3.068  -2.773  1.00  0.00     0.007 C   
ATOM     11  C3  UNL     1       3.149   1.956  -1.245  1.00  0.00     0.007 C   
ENDBRANCH   8   9
ENDBRANCH   7   8
BRANCH   7  12
ATOM     12  N1  UNL     1      -0.092  -1.018  -0.464  1.00  0.00     0.249 N   
ATOM     13  H11 UNL     1       0.041  -1.387  -1.412  1.00  0.00     0.199 HD  
ATOM     14  H12 UNL     1      -1.066  -0.682  -0.418  1.00  0.00     0.199 HD  
BRANCH  12  15
ATOM     15  C6  UNL     1       0.042  -2.131   0.516  1.00  0.00     0.164 C   
BRANCH  15  16
ATOM     16  C7  UNL     1      -0.960  -3.211   0.221  1.00  0.00    -0.002 A   
ATOM     17  C8  UNL     1      -2.263  -3.137   0.770  1.00  0.00     0.012 A   
ATOM     18  C12 UNL     1      -0.632  -4.266  -0.646  1.00  0.00     0.045 A   
ATOM     19  C9  UNL     1      -3.224  -4.110   0.473  1.00  0.00     0.037 A   
ATOM     20  C11 UNL     1      -1.603  -5.207  -0.920  1.00  0.00     0.109 A   
ATOM     21  C10 UNL     1      -2.862  -5.133  -0.376  1.00  0.00     0.108 A   
ATOM     22  O1  UNL     1      -1.452  -6.284  -1.734  1.00  0.00    -0.316 OA  
ATOM     23  O2  UNL     1      -3.660  -6.156  -0.774  1.00  0.00    -0.316 OA  
ATOM     24  C13 UNL     1      -2.757  -6.897  -1.622  1.00  0.00     0.337 C   
ENDBRANCH  15  16
ENDBRANCH  12  15
ENDBRANCH   7  12
ENDBRANCH   1   7
BRANCH   3  25
ATOM     25  C16 UNL     1       0.032   3.018   3.872  1.00  0.00     0.172 C   
BRANCH  25  26
ATOM     26  C17 UNL     1      -0.352   4.455   3.529  1.00  0.00     0.187 C   
BRANCH  26  27
ATOM     27  O3  UNL     1      -0.204   5.259   4.701  1.00  0.00    -0.385 OA  
ATOM     28  H24 UNL     1      -0.246   6.194   4.428  1.00  0.00     0.211 HD  
ENDBRANCH  26  27
BRANCH  26  29
ATOM     29  C18 UNL     1       0.510   5.053   2.466  1.00  0.00     0.089 A   
ATOM     30  C19 UNL     1       0.228   5.757   1.312  1.00  0.00     0.034 A   
ATOM     31  O4  UNL     1       1.861   4.907   2.601  1.00  0.00    -0.320 OA  
ATOM     32  C20 UNL     1       1.476   6.064   0.716  1.00  0.00     0.028 A   
ATOM     33  C21 UNL     1       2.437   5.533   1.543  1.00  0.00     0.136 A   
ENDBRANCH  26  29
ENDBRANCH  25  26
ENDBRANCH   3  25
TORSDOF 10
