REMARK SMILES COc1cc(CCn2cc([C@H](CC(C)C)[NH2+]Cc3ccc4c(c3)OCO4)nn2)ccc1O
REMARK SMILES IDX 8 1 9 2 10 3 27 4 28 5 7 7 6 8 5 9 3 10 4 11 31 12 30 13
REMARK SMILES IDX 29 14 2 15 1 16 32 17 11 19 12 20 13 21 14 22 15 23 16 24
REMARK SMILES IDX 17 27 18 28 19 29 23 30 20 31 22 32 21 33 24 34 26 35 25 36
REMARK H PARENT 9 6 32 18 16 25 16 26
ROOT
ATOM     1   N1  UNL     1      -3.695   1.746   0.233  1.00  0.00    -0.212 N   
ATOM     2   C7  UNL     1      -3.603   0.797  -0.747  1.00  0.00     0.045 A   
ATOM     3   C8  UNL     1      -2.431   1.105  -1.403  1.00  0.00     0.127 A   
ATOM     4   N3  UNL     1      -1.890   2.234  -0.837  1.00  0.00    -0.132 NA  
ATOM     5   N4  UNL     1      -2.674   2.618   0.158  1.00  0.00    -0.076 NA  
ATOM     6   H9  UNL     1      -4.316  -0.011  -0.835  1.00  0.00     0.083 HD  
ENDROOT
BRANCH   1   7
ATOM     7   C6  UNL     1      -4.636   1.790   1.334  1.00  0.00     0.139 C   
BRANCH   7   8
ATOM     8   C5  UNL     1      -4.005   1.437   2.689  1.00  0.00     0.057 C   
BRANCH   8   9
ATOM     9   C4  UNL     1      -3.181   0.165   2.676  1.00  0.00    -0.044 A   
ATOM     10  C2  UNL     1      -1.025  -0.929   2.949  1.00  0.00     0.105 A   
ATOM     11  C3  UNL     1      -1.820   0.213   3.037  1.00  0.00     0.040 A   
ATOM     12  C24 UNL     1      -1.595  -2.112   2.470  1.00  0.00     0.101 A   
ATOM     13  C23 UNL     1      -2.944  -2.192   2.151  1.00  0.00     0.036 A   
ATOM     14  C22 UNL     1      -3.743  -1.056   2.273  1.00  0.00     0.006 A   
BRANCH  10  15
ATOM     15  O1  UNL     1       0.312  -1.000   3.238  1.00  0.00    -0.347 OA  
ATOM     16  C1  UNL     1       0.821   0.017   4.098  1.00  0.00     0.203 C   
ENDBRANCH  10  15
BRANCH  12  17
ATOM     17  O4  UNL     1      -0.820  -3.225   2.295  1.00  0.00    -0.358 OA  
ATOM     18  H31 UNL     1       0.036  -3.018   2.725  1.00  0.00     0.218 HD  
ENDBRANCH  12  17
ENDBRANCH   8   9
ENDBRANCH   7   8
ENDBRANCH   1   7
BRANCH   3  19
ATOM     19  C9  UNL     1      -1.645   0.391  -2.456  1.00  0.00     0.114 C   
BRANCH  19  20
ATOM     20  C10 UNL     1      -2.253  -0.920  -2.982  1.00  0.00     0.064 C   
BRANCH  20  21
ATOM     21  C11 UNL     1      -3.486  -0.737  -3.895  1.00  0.00    -0.012 C   
ATOM     22  C12 UNL     1      -4.126  -2.100  -4.175  1.00  0.00     0.007 C   
ATOM     23  C13 UNL     1      -3.130  -0.056  -5.219  1.00  0.00     0.007 C   
ENDBRANCH  20  21
ENDBRANCH  19  20
BRANCH  19  24
ATOM     24  N2  UNL     1      -0.249   0.119  -1.946  1.00  0.00     0.249 N   
ATOM     25  H20 UNL     1       0.357  -0.219  -2.700  1.00  0.00     0.199 HD  
ATOM     26  H21 UNL     1       0.127   1.038  -1.672  1.00  0.00     0.199 HD  
BRANCH  24  27
ATOM     27  C14 UNL     1      -0.111  -0.769  -0.753  1.00  0.00     0.164 C   
BRANCH  27  28
ATOM     28  C15 UNL     1       1.316  -0.786  -0.279  1.00  0.00    -0.002 A   
ATOM     29  C16 UNL     1       2.176  -1.859  -0.614  1.00  0.00     0.012 A   
ATOM     30  C20 UNL     1       1.814   0.293   0.473  1.00  0.00     0.045 A   
ATOM     31  C17 UNL     1       3.513  -1.861  -0.201  1.00  0.00     0.037 A   
ATOM     32  C19 UNL     1       3.135   0.258   0.866  1.00  0.00     0.109 A   
ATOM     33  C18 UNL     1       3.962  -0.788   0.536  1.00  0.00     0.108 A   
ATOM     34  O2  UNL     1       3.768   1.210   1.600  1.00  0.00    -0.316 OA  
ATOM     35  O3  UNL     1       5.221  -0.625   1.018  1.00  0.00    -0.316 OA  
ATOM     36  C21 UNL     1       5.098   0.648   1.688  1.00  0.00     0.337 C   
ENDBRANCH  27  28
ENDBRANCH  24  27
ENDBRANCH  19  24
ENDBRANCH   3  19
TORSDOF 11
