REMARK SMILES C[C@H](Cn1cc([C@@H]([NH2+]Cc2ccc3c(c2)OCO3)C2CCCC2)nn1)c1ccccn1
REMARK SMILES IDX 4 1 5 2 6 3 24 4 25 5 3 7 2 8 1 9 26 10 27 11 31 12 28 13
REMARK SMILES IDX 30 14 29 15 7 16 8 17 9 20 10 21 11 22 15 23 12 24 14 25
REMARK SMILES IDX 13 26 16 27 18 28 17 29 19 30 20 31 23 32 21 33 22 34
REMARK H PARENT 5 6 8 18 8 19
ROOT
ATOM     1   N1  UNL     1      -1.171   0.082  -2.836  1.00  0.00    -0.211 N   
ATOM     2   C4  UNL     1      -0.949  -0.990  -2.018  1.00  0.00     0.045 A   
ATOM     3   C5  UNL     1      -1.144  -0.487  -0.753  1.00  0.00     0.127 A   
ATOM     4   N3  UNL     1      -1.524   0.828  -0.844  1.00  0.00    -0.132 NA  
ATOM     5   N4  UNL     1      -1.561   1.156  -2.124  1.00  0.00    -0.076 NA  
ATOM     6   H7  UNL     1      -0.626  -1.948  -2.400  1.00  0.00     0.083 HD  
ENDROOT
BRANCH   1   7
ATOM     7   C3  UNL     1      -1.096   0.144  -4.278  1.00  0.00     0.143 C   
BRANCH   7   8
ATOM     8   C2  UNL     1       0.226   0.670  -4.862  1.00  0.00     0.054 C   
ATOM     9   C1  UNL     1       0.667   2.016  -4.281  1.00  0.00     0.016 C   
BRANCH   8  10
ATOM     10  C20 UNL     1       1.346  -0.350  -4.765  1.00  0.00     0.045 A   
ATOM     11  C21 UNL     1       1.925  -0.857  -5.929  1.00  0.00     0.024 A   
ATOM     12  N5  UNL     1       1.762  -0.726  -3.528  1.00  0.00    -0.261 NA  
ATOM     13  C22 UNL     1       2.967  -1.774  -5.824  1.00  0.00     0.003 A   
ATOM     14  C24 UNL     1       2.786  -1.609  -3.462  1.00  0.00     0.111 A   
ATOM     15  C23 UNL     1       3.411  -2.157  -4.567  1.00  0.00     0.020 A   
ENDBRANCH   8  10
ENDBRANCH   7   8
ENDBRANCH   1   7
BRANCH   3  16
ATOM     16  C6  UNL     1      -0.905  -1.089   0.590  1.00  0.00     0.117 C   
BRANCH  16  17
ATOM     17  N2  UNL     1      -0.329  -0.042   1.512  1.00  0.00     0.249 N   
ATOM     18  H9  UNL     1      -0.914   0.800   1.401  1.00  0.00     0.199 HD  
ATOM     19  H10 UNL     1      -0.401  -0.321   2.495  1.00  0.00     0.199 HD  
BRANCH  17  20
ATOM     20  C7  UNL     1       1.075   0.361   1.211  1.00  0.00     0.164 C   
BRANCH  20  21
ATOM     21  C8  UNL     1       1.511   1.461   2.137  1.00  0.00    -0.002 A   
ATOM     22  C9  UNL     1       1.252   2.812   1.803  1.00  0.00     0.012 A   
ATOM     23  C13 UNL     1       2.128   1.155   3.362  1.00  0.00     0.045 A   
ATOM     24  C10 UNL     1       1.612   3.848   2.671  1.00  0.00     0.037 A   
ATOM     25  C12 UNL     1       2.470   2.201   4.194  1.00  0.00     0.109 A   
ATOM     26  C11 UNL     1       2.220   3.509   3.859  1.00  0.00     0.108 A   
ATOM     27  O1  UNL     1       3.069   2.081   5.408  1.00  0.00    -0.316 OA  
ATOM     28  O2  UNL     1       2.634   4.378   4.818  1.00  0.00    -0.316 OA  
ATOM     29  C14 UNL     1       3.191   3.470   5.792  1.00  0.00     0.337 C   
ENDBRANCH  20  21
ENDBRANCH  17  20
ENDBRANCH  16  17
BRANCH  16  30
ATOM     30  C15 UNL     1      -2.150  -1.685   1.269  1.00  0.00     0.043 C   
ATOM     31  C16 UNL     1      -2.836  -2.805   0.486  1.00  0.00     0.010 C   
ATOM     32  C19 UNL     1      -3.312  -0.725   1.540  1.00  0.00     0.010 C   
ATOM     33  C17 UNL     1      -4.153  -3.002   1.227  1.00  0.00     0.001 C   
ATOM     34  C18 UNL     1      -4.502  -1.639   1.828  1.00  0.00     0.001 C   
ENDBRANCH  16  30
ENDBRANCH   3  16
TORSDOF 8
