REMARK SMILES C[C@@H](Cn1cc([C@@H]([NH2+]Cc2ccc3c(c2)OCO3)C2CCCC2)nn1)c1ccccn1
REMARK SMILES IDX 4 1 5 2 6 3 24 4 25 5 3 7 2 8 1 9 26 10 27 11 31 12 28 13
REMARK SMILES IDX 30 14 29 15 7 16 8 17 9 20 10 21 11 22 15 23 12 24 14 25
REMARK SMILES IDX 13 26 16 27 18 28 17 29 19 30 20 31 23 32 21 33 22 34
REMARK H PARENT 5 6 8 18 8 19
ROOT
ATOM     1   N1  UNL     1      -0.360   1.952  -1.312  1.00  0.00    -0.211 N   
ATOM     2   C4  UNL     1      -0.969   0.815  -0.862  1.00  0.00     0.045 A   
ATOM     3   C5  UNL     1      -0.490   0.667   0.418  1.00  0.00     0.127 A   
ATOM     4   N3  UNL     1       0.368   1.703   0.701  1.00  0.00    -0.132 NA  
ATOM     5   N4  UNL     1       0.441   2.479  -0.366  1.00  0.00    -0.076 NA  
ATOM     6   H7  UNL     1      -1.642   0.239  -1.482  1.00  0.00     0.083 HD  
ENDROOT
BRANCH   1   7
ATOM     7   C3  UNL     1      -0.518   2.609  -2.595  1.00  0.00     0.143 C   
BRANCH   7   8
ATOM     8   C2  UNL     1       0.653   2.339  -3.552  1.00  0.00     0.054 C   
ATOM     9   C1  UNL     1       0.515   3.215  -4.800  1.00  0.00     0.016 C   
BRANCH   8  10
ATOM     10  C20 UNL     1       0.739   0.881  -3.965  1.00  0.00     0.045 A   
ATOM     11  C21 UNL     1       1.978   0.306  -4.241  1.00  0.00     0.024 A   
ATOM     12  N5  UNL     1      -0.424   0.198  -4.108  1.00  0.00    -0.261 NA  
ATOM     13  C22 UNL     1       2.025  -1.012  -4.682  1.00  0.00     0.003 A   
ATOM     14  C24 UNL     1      -0.347  -1.079  -4.548  1.00  0.00     0.111 A   
ATOM     15  C23 UNL     1       0.842  -1.722  -4.841  1.00  0.00     0.020 A   
ENDBRANCH   8  10
ENDBRANCH   7   8
ENDBRANCH   1   7
BRANCH   3  16
ATOM     16  C6  UNL     1      -0.729  -0.384   1.453  1.00  0.00     0.117 C   
BRANCH  16  17
ATOM     17  N2  UNL     1       0.378  -0.326   2.484  1.00  0.00     0.249 N   
ATOM     18  H9  UNL     1       0.910   0.534   2.268  1.00  0.00     0.199 HD  
ATOM     19  H10 UNL     1       0.002  -0.168   3.423  1.00  0.00     0.199 HD  
BRANCH  17  20
ATOM     20  C7  UNL     1       1.328  -1.468   2.510  1.00  0.00     0.164 C   
BRANCH  20  21
ATOM     21  C8  UNL     1       2.064  -1.700   1.218  1.00  0.00    -0.002 A   
ATOM     22  C9  UNL     1       2.920  -0.708   0.679  1.00  0.00     0.012 A   
ATOM     23  C13 UNL     1       1.916  -2.922   0.539  1.00  0.00     0.045 A   
ATOM     24  C10 UNL     1       3.610  -0.925  -0.519  1.00  0.00     0.037 A   
ATOM     25  C12 UNL     1       2.615  -3.105  -0.636  1.00  0.00     0.109 A   
ATOM     26  C11 UNL     1       3.439  -2.136  -1.151  1.00  0.00     0.108 A   
ATOM     27  O1  UNL     1       2.588  -4.226  -1.403  1.00  0.00    -0.316 OA  
ATOM     28  O2  UNL     1       4.040  -2.526  -2.306  1.00  0.00    -0.316 OA  
ATOM     29  C14 UNL     1       3.530  -3.870  -2.439  1.00  0.00     0.337 C   
ENDBRANCH  20  21
ENDBRANCH  17  20
ENDBRANCH  16  17
BRANCH  16  30
ATOM     30  C15 UNL     1      -2.108  -0.234   2.121  1.00  0.00     0.043 C   
ATOM     31  C16 UNL     1      -2.458  -1.344   3.116  1.00  0.00     0.010 C   
ATOM     32  C19 UNL     1      -2.345   1.068   2.908  1.00  0.00     0.010 C   
ATOM     33  C17 UNL     1      -3.650  -0.761   3.858  1.00  0.00     0.001 C   
ATOM     34  C18 UNL     1      -3.267   0.698   4.071  1.00  0.00     0.001 C   
ENDBRANCH  16  30
ENDBRANCH   3  16
TORSDOF 8
