REMARK SMILES COc1nc(Cl)ccc1Cn1cc([C@@H]([NH2+]Cc2ccc3c(c2)OCO3)C2CCCC2)nn1
REMARK SMILES IDX 11 1 12 2 13 3 31 4 32 5 10 7 9 8 3 9 4 10 5 11 8 12 7 13
REMARK SMILES IDX 6 14 2 15 1 16 14 17 15 18 16 21 17 22 18 23 22 24 19 25
REMARK SMILES IDX 21 26 20 27 23 28 25 29 24 30 26 31 27 32 30 33 28 34 29 35
REMARK H PARENT 12 6 15 19 15 20
ROOT
ATOM     1   N2  UNL     1       1.031   0.066   1.798  1.00  0.00    -0.208 N   
ATOM     2   C8  UNL     1       1.148  -0.034   0.440  1.00  0.00     0.046 A   
ATOM     3   C9  UNL     1       0.852   1.232  -0.013  1.00  0.00     0.127 A   
ATOM     4   N4  UNL     1       0.591   2.046   1.061  1.00  0.00    -0.132 NA  
ATOM     5   N5  UNL     1       0.707   1.324   2.162  1.00  0.00    -0.076 NA  
ATOM     6   H8  UNL     1       1.391  -0.964  -0.052  1.00  0.00     0.083 HD  
ENDROOT
BRANCH   1   7
ATOM     7   C7  UNL     1       1.261  -0.958   2.804  1.00  0.00     0.174 C   
BRANCH   7   8
ATOM     8   C6  UNL     1       0.046  -1.821   2.996  1.00  0.00     0.021 A   
ATOM     9   C2  UNL     1      -0.140  -2.999   2.272  1.00  0.00     0.173 A   
ATOM     10  N1  UNL     1      -1.213  -3.805   2.407  1.00  0.00    -0.212 NA  
ATOM     11  C3  UNL     1      -2.138  -3.433   3.317  1.00  0.00     0.132 A   
ATOM     12  C5  UNL     1      -0.952  -1.464   3.914  1.00  0.00     0.013 A   
ATOM     13  C4  UNL     1      -2.063  -2.286   4.085  1.00  0.00     0.041 A   
ATOM     14  CL1 UNL     1      -3.468  -4.505   3.458  1.00  0.00    -0.062 Cl  
BRANCH   9  15
ATOM     15  O1  UNL     1       0.836  -3.334   1.349  1.00  0.00    -0.332 OA  
ATOM     16  C1  UNL     1       0.699  -4.665   0.847  1.00  0.00     0.205 C   
ENDBRANCH   9  15
ENDBRANCH   7   8
ENDBRANCH   1   7
BRANCH   3  17
ATOM     17  C10 UNL     1       0.719   1.786  -1.396  1.00  0.00     0.117 C   
BRANCH  17  18
ATOM     18  N3  UNL     1      -0.377   2.832  -1.410  1.00  0.00     0.249 N   
ATOM     19  H10 UNL     1      -0.095   3.662  -1.938  1.00  0.00     0.199 HD  
ATOM     20  H11 UNL     1      -0.471   3.148  -0.431  1.00  0.00     0.199 HD  
BRANCH  18  21
ATOM     21  C11 UNL     1      -1.715   2.383  -1.888  1.00  0.00     0.164 C   
BRANCH  21  22
ATOM     22  C12 UNL     1      -2.298   1.239  -1.108  1.00  0.00    -0.002 A   
ATOM     23  C13 UNL     1      -2.734   1.423   0.227  1.00  0.00     0.012 A   
ATOM     24  C17 UNL     1      -2.397  -0.035  -1.693  1.00  0.00     0.045 A   
ATOM     25  C14 UNL     1      -3.264   0.359   0.968  1.00  0.00     0.037 A   
ATOM     26  C16 UNL     1      -2.920  -1.062  -0.936  1.00  0.00     0.109 A   
ATOM     27  C15 UNL     1      -3.345  -0.870   0.355  1.00  0.00     0.108 A   
ATOM     28  O2  UNL     1      -3.090  -2.344  -1.355  1.00  0.00    -0.316 OA  
ATOM     29  O3  UNL     1      -3.850  -2.003   0.910  1.00  0.00    -0.316 OA  
ATOM     30  C18 UNL     1      -3.679  -2.941  -0.176  1.00  0.00     0.337 C   
ENDBRANCH  21  22
ENDBRANCH  18  21
ENDBRANCH  17  18
BRANCH  17  31
ATOM     31  C19 UNL     1       2.049   2.374  -1.909  1.00  0.00     0.043 C   
ATOM     32  C20 UNL     1       2.029   2.795  -3.381  1.00  0.00     0.010 C   
ATOM     33  C23 UNL     1       2.554   3.640  -1.211  1.00  0.00     0.010 C   
ATOM     34  C21 UNL     1       3.308   3.611  -3.542  1.00  0.00     0.001 C   
ATOM     35  C22 UNL     1       3.598   4.216  -2.169  1.00  0.00     0.001 C   
ENDBRANCH  17  31
ENDBRANCH   3  17
TORSDOF 8
