REMARK SMILES CC(C)C[C@H]([NH2+]Cc1ccc2c(c1)OCO2)c1cn(-c2ccc3c(c2)CCN(C)C3)nn1
REMARK SMILES IDX 5 1 4 2 2 3 1 4 3 5 6 6 7 9 8 10 9 11 13 12 10 13 12 14
REMARK SMILES IDX 11 15 14 16 16 17 15 18 17 19 18 20 32 21 19 22 31 23 20 24
REMARK SMILES IDX 21 25 25 26 22 27 24 28 23 29 26 30 30 31 27 32 28 33 29 34
REMARK H PARENT 6 7 6 8
ROOT
ATOM     1   C5  UNL     1      -2.285  -0.762   1.270  1.00  0.00     0.114 C   
ENDROOT
BRANCH   1   2
ATOM     2   C4  UNL     1      -2.650  -2.115   0.625  1.00  0.00     0.064 C   
BRANCH   2   3
ATOM     3   C2  UNL     1      -2.946  -2.155  -0.892  1.00  0.00    -0.012 C   
ATOM     4   C1  UNL     1      -1.766  -1.718  -1.757  1.00  0.00     0.007 C   
ATOM     5   C3  UNL     1      -3.369  -3.574  -1.291  1.00  0.00     0.007 C   
ENDBRANCH   2   3
ENDBRANCH   1   2
BRANCH   1   6
ATOM     6   N1  UNL     1      -3.231   0.319   0.832  1.00  0.00     0.249 N   
ATOM     7   H11 UNL     1      -3.265   0.365  -0.195  1.00  0.00     0.199 HD  
ATOM     8   H12 UNL     1      -2.785   1.216   1.082  1.00  0.00     0.199 HD  
BRANCH   6   9
ATOM     9   C6  UNL     1      -4.600   0.305   1.398  1.00  0.00     0.164 C   
BRANCH   9  10
ATOM     10  C7  UNL     1      -5.455   1.344   0.730  1.00  0.00    -0.002 A   
ATOM     11  C8  UNL     1      -6.364   0.965  -0.289  1.00  0.00     0.012 A   
ATOM     12  C12 UNL     1      -5.321   2.703   1.068  1.00  0.00     0.045 A   
ATOM     13  C9  UNL     1      -7.132   1.924  -0.960  1.00  0.00     0.037 A   
ATOM     14  C11 UNL     1      -6.089   3.622   0.382  1.00  0.00     0.109 A   
ATOM     15  C10 UNL     1      -6.969   3.244  -0.603  1.00  0.00     0.108 A   
ATOM     16  O1  UNL     1      -6.074   4.968   0.576  1.00  0.00    -0.316 OA  
ATOM     17  O2  UNL     1      -7.621   4.301  -1.152  1.00  0.00    -0.316 OA  
ATOM     18  C13 UNL     1      -7.055   5.397  -0.398  1.00  0.00     0.337 C   
ENDBRANCH   9  10
ENDBRANCH   6   9
ENDBRANCH   1   6
BRANCH   1  19
ATOM     19  C14 UNL     1      -0.875  -0.318   1.039  1.00  0.00     0.127 A   
ATOM     20  C15 UNL     1       0.330  -0.981   1.125  1.00  0.00     0.135 A   
ATOM     21  N5  UNL     1      -0.639   0.989   0.713  1.00  0.00    -0.131 NA  
ATOM     22  N2  UNL     1       1.288  -0.034   0.811  1.00  0.00    -0.181 N   
ATOM     23  N4  UNL     1       0.665   1.151   0.578  1.00  0.00    -0.071 NA  
BRANCH  22  24
ATOM     24  C16 UNL     1       2.695  -0.175   0.724  1.00  0.00     0.058 A   
ATOM     25  C17 UNL     1       3.481   0.947   0.428  1.00  0.00     0.026 A   
ATOM     26  C21 UNL     1       3.312  -1.417   0.929  1.00  0.00     0.030 A   
ATOM     27  C18 UNL     1       4.871   0.831   0.352  1.00  0.00     0.007 A   
ATOM     28  C20 UNL     1       4.708  -1.537   0.835  1.00  0.00    -0.040 A   
ATOM     29  C19 UNL     1       5.496  -0.404   0.568  1.00  0.00    -0.031 A   
ATOM     30  C22 UNL     1       5.373  -2.870   1.088  1.00  0.00     0.051 C   
ATOM     31  C25 UNL     1       7.004  -0.512   0.448  1.00  0.00     0.120 C   
ATOM     32  C23 UNL     1       6.830  -2.910   0.607  1.00  0.00     0.089 C   
ATOM     33  N3  UNL     1       7.554  -1.724   1.080  1.00  0.00    -0.302 NA  
ATOM     34  C24 UNL     1       8.985  -1.837   0.798  1.00  0.00     0.105 C   
ENDBRANCH  22  24
ENDBRANCH   1  19
TORSDOF 7
