REMARK SMILES CC(C)C[C@H]([NH2+]Cc1ccc2c(c1)OCO2)c1cn(Cc2cncc(C(C)(F)F)c2)nn1
REMARK SMILES IDX 17 1 18 2 19 3 31 4 32 5 5 7 4 8 2 9 1 10 3 11 6 12 7 15
REMARK SMILES IDX 8 16 9 17 13 18 10 19 12 20 11 21 14 22 16 23 15 24 20 25
REMARK SMILES IDX 21 26 22 27 30 28 23 29 25 30 24 31 26 32 27 33 28 34 29 35
REMARK H PARENT 18 6 6 13 6 14
ROOT
ATOM     1   C14 UNL     1       0.872  -0.202  -1.133  1.00  0.00     0.127 A   
ATOM     2   C15 UNL     1      -0.142  -0.817  -0.433  1.00  0.00     0.046 A   
ATOM     3   N2  UNL     1       0.474  -1.293   0.693  1.00  0.00    -0.208 N   
ATOM     4   N4  UNL     1       1.793  -1.018   0.670  1.00  0.00    -0.076 NA  
ATOM     5   N5  UNL     1       2.049  -0.351  -0.443  1.00  0.00    -0.132 NA  
ATOM     6   H20 UNL     1      -1.202  -0.935  -0.612  1.00  0.00     0.083 HD  
ENDROOT
BRANCH   1   7
ATOM     7   C5  UNL     1       0.868   0.562  -2.413  1.00  0.00     0.114 C   
BRANCH   7   8
ATOM     8   C4  UNL     1       0.921  -0.346  -3.660  1.00  0.00     0.064 C   
BRANCH   8   9
ATOM     9   C2  UNL     1       2.015  -1.437  -3.733  1.00  0.00    -0.012 C   
ATOM     10  C1  UNL     1       3.436  -0.884  -3.829  1.00  0.00     0.007 C   
ATOM     11  C3  UNL     1       1.746  -2.337  -4.946  1.00  0.00     0.007 C   
ENDBRANCH   8   9
ENDBRANCH   7   8
BRANCH   7  12
ATOM     12  N1  UNL     1       1.998   1.560  -2.447  1.00  0.00     0.249 N   
ATOM     13  H11 UNL     1       2.709   1.202  -1.789  1.00  0.00     0.199 HD  
ATOM     14  H12 UNL     1       2.441   1.577  -3.370  1.00  0.00     0.199 HD  
BRANCH  12  15
ATOM     15  C6  UNL     1       1.664   2.956  -2.047  1.00  0.00     0.164 C   
BRANCH  15  16
ATOM     16  C7  UNL     1       1.182   3.094  -0.631  1.00  0.00    -0.002 A   
ATOM     17  C8  UNL     1       2.080   2.927   0.451  1.00  0.00     0.012 A   
ATOM     18  C12 UNL     1      -0.170   3.370  -0.367  1.00  0.00     0.045 A   
ATOM     19  C9  UNL     1       1.639   3.027   1.775  1.00  0.00     0.037 A   
ATOM     20  C11 UNL     1      -0.572   3.464   0.949  1.00  0.00     0.109 A   
ATOM     21  C10 UNL     1       0.307   3.298   1.990  1.00  0.00     0.108 A   
ATOM     22  O1  UNL     1      -1.835   3.729   1.371  1.00  0.00    -0.316 OA  
ATOM     23  O2  UNL     1      -0.291   3.438   3.202  1.00  0.00    -0.316 OA  
ATOM     24  C13 UNL     1      -1.643   3.754   2.806  1.00  0.00     0.337 C   
ENDBRANCH  15  16
ENDBRANCH  12  15
ENDBRANCH   7  12
ENDBRANCH   1   7
BRANCH   3  25
ATOM     25  C16 UNL     1      -0.096  -2.055   1.794  1.00  0.00     0.171 C   
BRANCH  25  26
ATOM     26  C17 UNL     1      -1.331  -1.406   2.347  1.00  0.00    -0.010 A   
ATOM     27  C18 UNL     1      -1.249  -0.258   3.128  1.00  0.00     0.116 A   
ATOM     28  C23 UNL     1      -2.609  -1.913   2.081  1.00  0.00     0.018 A   
ATOM     29  N3  UNL     1      -2.324   0.387   3.631  1.00  0.00    -0.264 NA  
ATOM     30  C20 UNL     1      -3.744  -1.266   2.586  1.00  0.00     0.039 A   
ATOM     31  C19 UNL     1      -3.543  -0.126   3.350  1.00  0.00     0.120 A   
BRANCH  30  32
ATOM     32  C21 UNL     1      -5.134  -1.777   2.325  1.00  0.00     0.272 C   
ATOM     33  C22 UNL     1      -5.612  -2.704   3.430  1.00  0.00     0.093 C   
ATOM     34  F1  UNL     1      -5.205  -2.463   1.146  1.00  0.00    -0.202 F   
ATOM     35  F2  UNL     1      -6.037  -0.762   2.203  1.00  0.00    -0.202 F   
ENDBRANCH  30  32
ENDBRANCH  25  26
ENDBRANCH   3  25
TORSDOF 9
