REMARK SMILES c1ccn2ncc(CCn3cc([C@@H]([NH2+]Cc4ccc5c(c4)OCO5)C4CCCC4)nn3)c2c1
REMARK SMILES IDX 10 1 11 2 12 3 30 4 31 5 9 7 8 8 7 9 1 10 2 11 33 12 3 13
REMARK SMILES IDX 32 14 4 15 5 16 6 17 13 18 14 19 15 22 16 23 17 24 21 25
REMARK SMILES IDX 18 26 20 27 19 28 22 29 24 30 23 31 25 32 26 33 29 34 27 35
REMARK SMILES IDX 28 36
REMARK H PARENT 11 6 14 20 14 21
ROOT
ATOM     1   N3  UNL     1      -1.000  -3.155   0.156  1.00  0.00    -0.212 N   
ATOM     2   C8  UNL     1      -1.365  -1.865   0.443  1.00  0.00     0.045 A   
ATOM     3   C9  UNL     1      -1.213  -1.206  -0.755  1.00  0.00     0.127 A   
ATOM     4   N5  UNL     1      -0.921  -2.126  -1.733  1.00  0.00    -0.132 NA  
ATOM     5   N6  UNL     1      -0.830  -3.321  -1.172  1.00  0.00    -0.076 NA  
ATOM     6   H9  UNL     1      -1.513  -1.520   1.456  1.00  0.00     0.083 HD  
ENDROOT
BRANCH   1   7
ATOM     7   C7  UNL     1      -0.445  -4.121   1.090  1.00  0.00     0.139 C   
BRANCH   7   8
ATOM     8   C6  UNL     1       1.095  -4.142   1.059  1.00  0.00     0.060 C   
BRANCH   8   9
ATOM     9   C5  UNL     1       1.682  -2.765   1.080  1.00  0.00    -0.003 A   
ATOM     10  C1  UNL     1       2.174  -0.995   4.343  1.00  0.00     0.003 A   
ATOM     11  C2  UNL     1       2.670   0.242   3.774  1.00  0.00     0.018 A   
ATOM     12  C25 UNL     1       1.798  -2.031   3.563  1.00  0.00     0.026 A   
ATOM     13  C3  UNL     1       2.740   0.358   2.437  1.00  0.00     0.102 A   
ATOM     14  C24 UNL     1       1.902  -1.917   2.145  1.00  0.00     0.061 A   
ATOM     15  N1  UNL     1       2.350  -0.699   1.618  1.00  0.00    -0.201 N   
ATOM     16  N2  UNL     1       2.280  -0.708   0.248  1.00  0.00    -0.185 NA  
ATOM     17  C4  UNL     1       2.061  -1.995  -0.045  1.00  0.00     0.137 A   
ENDBRANCH   8   9
ENDBRANCH   7   8
ENDBRANCH   1   7
BRANCH   3  18
ATOM     18  C10 UNL     1      -1.170   0.262  -1.050  1.00  0.00     0.117 C   
BRANCH  18  19
ATOM     19  N4  UNL     1       0.223   0.587  -1.536  1.00  0.00     0.249 N   
ATOM     20  H11 UNL     1       0.394  -0.004  -2.358  1.00  0.00     0.199 HD  
ATOM     21  H12 UNL     1       0.909   0.221  -0.843  1.00  0.00     0.199 HD  
BRANCH  19  22
ATOM     22  C11 UNL     1       0.596   1.989  -1.843  1.00  0.00     0.164 C   
BRANCH  22  23
ATOM     23  C12 UNL     1       1.167   2.741  -0.673  1.00  0.00    -0.002 A   
ATOM     24  C13 UNL     1       2.558   3.020  -0.627  1.00  0.00     0.012 A   
ATOM     25  C17 UNL     1       0.343   3.186   0.375  1.00  0.00     0.045 A   
ATOM     26  C14 UNL     1       3.120   3.730   0.439  1.00  0.00     0.037 A   
ATOM     27  C16 UNL     1       0.931   3.871   1.421  1.00  0.00     0.109 A   
ATOM     28  C15 UNL     1       2.280   4.136   1.451  1.00  0.00     0.108 A   
ATOM     29  O1  UNL     1       0.281   4.357   2.513  1.00  0.00    -0.316 OA  
ATOM     30  O2  UNL     1       2.654   4.814   2.566  1.00  0.00    -0.316 OA  
ATOM     31  C18 UNL     1       1.379   4.980   3.224  1.00  0.00     0.337 C   
ENDBRANCH  22  23
ENDBRANCH  19  22
ENDBRANCH  18  19
BRANCH  18  32
ATOM     32  C19 UNL     1      -2.249   0.734  -2.053  1.00  0.00     0.043 C   
ATOM     33  C20 UNL     1      -2.070   0.297  -3.517  1.00  0.00     0.010 C   
ATOM     34  C23 UNL     1      -3.701   0.341  -1.687  1.00  0.00     0.010 C   
ATOM     35  C21 UNL     1      -3.473   0.424  -4.097  1.00  0.00     0.001 C   
ATOM     36  C22 UNL     1      -4.348  -0.136  -2.986  1.00  0.00     0.001 C   
ENDBRANCH  18  32
ENDBRANCH   3  18
TORSDOF 8
