REMARK SMILES CC(C)[C@H]([NH2+]Cc1ccc2c(c1)OCO2)c1cn(COCc2ccccc2)nn1
REMARK SMILES IDX 16 1 17 2 18 3 28 4 29 5 4 7 2 8 1 9 3 10 5 11 6 14 7 15
REMARK SMILES IDX 8 16 12 17 9 18 11 19 10 20 13 21 15 22 14 23 19 24 20 25
REMARK SMILES IDX 21 26 22 27 23 28 27 29 24 30 26 31 25 32
REMARK H PARENT 17 6 5 12 5 13
ROOT
ATOM     1   C13 UNL     1       1.591   0.764  -0.861  1.00  0.00     0.127 A   
ATOM     2   C14 UNL     1       2.391  -0.349  -0.969  1.00  0.00     0.048 A   
ATOM     3   N2  UNL     1       3.547   0.013  -0.335  1.00  0.00    -0.186 N   
ATOM     4   N3  UNL     1       3.471   1.279   0.122  1.00  0.00    -0.074 NA  
ATOM     5   N4  UNL     1       2.274   1.749  -0.189  1.00  0.00    -0.132 NA  
ATOM     6   H18 UNL     1       2.255  -1.334  -1.395  1.00  0.00     0.083 HD  
ENDROOT
BRANCH   1   7
ATOM     7   C4  UNL     1       0.180   1.010  -1.289  1.00  0.00     0.117 C   
BRANCH   7   8
ATOM     8   C2  UNL     1       0.083   1.495  -2.758  1.00  0.00     0.037 C   
ATOM     9   C1  UNL     1       0.660   2.896  -2.995  1.00  0.00     0.014 C   
ATOM     10  C3  UNL     1      -1.359   1.435  -3.276  1.00  0.00     0.014 C   
ENDBRANCH   7   8
BRANCH   7  11
ATOM     11  N1  UNL     1      -0.465   2.010  -0.360  1.00  0.00     0.249 N   
ATOM     12  H9  UNL     1      -1.256   2.481  -0.807  1.00  0.00     0.199 HD  
ATOM     13  H10 UNL     1       0.254   2.726  -0.178  1.00  0.00     0.199 HD  
BRANCH  11  14
ATOM     14  C5  UNL     1      -0.896   1.469   0.962  1.00  0.00     0.164 C   
BRANCH  14  15
ATOM     15  C6  UNL     1      -2.197   0.720   0.867  1.00  0.00    -0.002 A   
ATOM     16  C7  UNL     1      -3.421   1.423   0.756  1.00  0.00     0.012 A   
ATOM     17  C11 UNL     1      -2.205  -0.684   0.848  1.00  0.00     0.045 A   
ATOM     18  C8  UNL     1      -4.635   0.739   0.624  1.00  0.00     0.037 A   
ATOM     19  C10 UNL     1      -3.418  -1.328   0.719  1.00  0.00     0.109 A   
ATOM     20  C9  UNL     1      -4.599  -0.637   0.607  1.00  0.00     0.108 A   
ATOM     21  O1  UNL     1      -3.598  -2.674   0.676  1.00  0.00    -0.316 OA  
ATOM     22  O2  UNL     1      -5.671  -1.460   0.478  1.00  0.00    -0.316 OA  
ATOM     23  C12 UNL     1      -5.037  -2.755   0.561  1.00  0.00     0.337 C   
ENDBRANCH  14  15
ENDBRANCH  11  14
ENDBRANCH   7  11
ENDBRANCH   1   7
BRANCH   3  24
ATOM     24  C15 UNL     1       4.757  -0.771  -0.156  1.00  0.00     0.294 C   
BRANCH  24  25
ATOM     25  O3  UNL     1       4.428  -2.088   0.288  1.00  0.00    -0.356 OA  
BRANCH  25  26
ATOM     26  C16 UNL     1       4.435  -2.225   1.708  1.00  0.00     0.198 C   
BRANCH  26  27
ATOM     27  C17 UNL     1       3.085  -1.910   2.300  1.00  0.00    -0.022 A   
ATOM     28  C18 UNL     1       2.889  -0.755   3.071  1.00  0.00     0.006 A   
ATOM     29  C22 UNL     1       2.009  -2.789   2.112  1.00  0.00     0.006 A   
ATOM     30  C19 UNL     1       1.650  -0.498   3.661  1.00  0.00     0.000 A   
ATOM     31  C21 UNL     1       0.772  -2.533   2.708  1.00  0.00     0.000 A   
ATOM     32  C20 UNL     1       0.594  -1.390   3.486  1.00  0.00     0.000 A   
ENDBRANCH  26  27
ENDBRANCH  25  26
ENDBRANCH  24  25
ENDBRANCH   3  24
TORSDOF 9
