REMARK SMILES Cc1ccoc1[C@@H](CO)n1cc([C@@H]([NH2+]Cc2ccc3c(c2)OCO3)C2CCCC2)nn1
REMARK SMILES IDX 10 1 11 2 12 3 30 4 31 5 7 7 6 8 2 9 3 10 4 11 5 12 1 13
REMARK SMILES IDX 8 14 9 15 13 17 14 18 15 21 16 22 17 23 21 24 18 25 20 26
REMARK SMILES IDX 19 27 22 28 24 29 23 30 25 31 26 32 29 33 27 34 28 35
REMARK H PARENT 11 6 9 16 14 19 14 20
ROOT
ATOM     1   N1  UNL     1      -1.621   0.024  -2.282  1.00  0.00    -0.200 N   
ATOM     2   C8  UNL     1      -0.590   0.733  -1.717  1.00  0.00     0.046 A   
ATOM     3   C9  UNL     1      -0.113  -0.096  -0.729  1.00  0.00     0.127 A   
ATOM     4   N3  UNL     1      -0.852  -1.251  -0.712  1.00  0.00    -0.132 NA  
ATOM     5   N4  UNL     1      -1.774  -1.165  -1.656  1.00  0.00    -0.075 NA  
ATOM     6   H10 UNL     1      -0.311   1.717  -2.068  1.00  0.00     0.083 HD  
ENDROOT
BRANCH   1   7
ATOM     7   C6  UNL     1      -2.481   0.437  -3.388  1.00  0.00     0.179 C   
BRANCH   7   8
ATOM     8   C5  UNL     1      -1.996  -0.166  -4.670  1.00  0.00     0.086 A   
ATOM     9   C2  UNL     1      -1.881  -1.454  -5.178  1.00  0.00    -0.020 A   
ATOM     10  C3  UNL     1      -1.334  -1.303  -6.484  1.00  0.00     0.031 A   
ATOM     11  C4  UNL     1      -1.157   0.043  -6.686  1.00  0.00     0.136 A   
ATOM     12  O1  UNL     1      -1.552   0.738  -5.593  1.00  0.00    -0.320 OA  
ATOM     13  C1  UNL     1      -2.229  -2.743  -4.529  1.00  0.00     0.047 C   
ENDBRANCH   7   8
BRANCH   7  14
ATOM     14  C7  UNL     1      -3.968   0.168  -3.129  1.00  0.00     0.188 C   
BRANCH  14  15
ATOM     15  O2  UNL     1      -4.460   1.034  -2.099  1.00  0.00    -0.394 OA  
ATOM     16  H9  UNL     1      -5.416   0.856  -2.015  1.00  0.00     0.210 HD  
ENDBRANCH  14  15
ENDBRANCH   7  14
ENDBRANCH   1   7
BRANCH   3  17
ATOM     17  C10 UNL     1       0.981   0.090   0.272  1.00  0.00     0.117 C   
BRANCH  17  18
ATOM     18  N2  UNL     1       0.672  -0.694   1.518  1.00  0.00     0.249 N   
ATOM     19  H12 UNL     1       0.312  -1.610   1.208  1.00  0.00     0.199 HD  
ATOM     20  H13 UNL     1       1.510  -0.891   2.073  1.00  0.00     0.199 HD  
BRANCH  18  21
ATOM     21  C11 UNL     1      -0.370  -0.096   2.397  1.00  0.00     0.164 C   
BRANCH  21  22
ATOM     22  C12 UNL     1      -0.655  -1.001   3.562  1.00  0.00    -0.002 A   
ATOM     23  C13 UNL     1      -1.633  -2.018   3.447  1.00  0.00     0.012 A   
ATOM     24  C17 UNL     1       0.087  -0.883   4.749  1.00  0.00     0.045 A   
ATOM     25  C14 UNL     1      -1.882  -2.897   4.506  1.00  0.00     0.037 A   
ATOM     26  C16 UNL     1      -0.182  -1.768   5.773  1.00  0.00     0.109 A   
ATOM     27  C15 UNL     1      -1.139  -2.746   5.656  1.00  0.00     0.108 A   
ATOM     28  O3  UNL     1       0.440  -1.792   6.980  1.00  0.00    -0.316 OA  
ATOM     29  O4  UNL     1      -1.243  -3.506   6.777  1.00  0.00    -0.316 OA  
ATOM     30  C18 UNL     1      -0.248  -2.889   7.622  1.00  0.00     0.337 C   
ENDBRANCH  21  22
ENDBRANCH  18  21
ENDBRANCH  17  18
BRANCH  17  31
ATOM     31  C19 UNL     1       2.352  -0.319  -0.299  1.00  0.00     0.043 C   
ATOM     32  C20 UNL     1       3.552   0.085   0.577  1.00  0.00     0.010 C   
ATOM     33  C23 UNL     1       2.563  -1.815  -0.556  1.00  0.00     0.010 C   
ATOM     34  C21 UNL     1       4.611  -1.001   0.378  1.00  0.00     0.001 C   
ATOM     35  C22 UNL     1       4.073  -1.916  -0.714  1.00  0.00     0.001 C   
ENDBRANCH  17  31
ENDBRANCH   3  17
TORSDOF 9
