REMARK SMILES Cc1ccoc1[C@H](CO)n1cc([C@@H]([NH2+]Cc2ccc3c(c2)OCO3)C2CCCC2)nn1
REMARK SMILES IDX 10 1 11 2 12 3 30 4 31 5 7 7 6 8 2 9 3 10 4 11 5 12 1 13
REMARK SMILES IDX 8 14 9 15 13 17 14 18 15 21 16 22 17 23 21 24 18 25 20 26
REMARK SMILES IDX 19 27 22 28 24 29 23 30 25 31 26 32 29 33 27 34 28 35
REMARK H PARENT 11 6 9 16 14 19 14 20
ROOT
ATOM     1   N1  UNL     1      -0.731   1.608  -0.395  1.00  0.00    -0.200 N   
ATOM     2   C8  UNL     1      -0.718   0.258  -0.627  1.00  0.00     0.046 A   
ATOM     3   C9  UNL     1       0.306  -0.211   0.165  1.00  0.00     0.127 A   
ATOM     4   N3  UNL     1       0.868   0.836   0.848  1.00  0.00    -0.132 NA  
ATOM     5   N4  UNL     1       0.233   1.941   0.497  1.00  0.00    -0.075 NA  
ATOM     6   H10 UNL     1      -1.413  -0.220  -1.304  1.00  0.00     0.083 HD  
ENDROOT
BRANCH   1   7
ATOM     7   C6  UNL     1      -1.609   2.637  -0.946  1.00  0.00     0.179 C   
BRANCH   7   8
ATOM     8   C5  UNL     1      -2.927   2.588  -0.238  1.00  0.00     0.086 A   
ATOM     9   C2  UNL     1      -3.500   3.363   0.758  1.00  0.00    -0.020 A   
ATOM     10  C3  UNL     1      -4.785   2.799   0.991  1.00  0.00     0.031 A   
ATOM     11  C4  UNL     1      -4.905   1.728   0.139  1.00  0.00     0.136 A   
ATOM     12  O1  UNL     1      -3.783   1.591  -0.610  1.00  0.00    -0.320 OA  
ATOM     13  C1  UNL     1      -2.907   4.540   1.439  1.00  0.00     0.047 C   
ENDBRANCH   7   8
BRANCH   7  14
ATOM     14  C7  UNL     1      -1.780   2.529  -2.471  1.00  0.00     0.188 C   
BRANCH  14  15
ATOM     15  O2  UNL     1      -0.534   2.708  -3.147  1.00  0.00    -0.394 OA  
ATOM     16  H9  UNL     1      -0.737   2.819  -4.095  1.00  0.00     0.210 HD  
ENDBRANCH  14  15
ENDBRANCH   7  14
ENDBRANCH   1   7
BRANCH   3  17
ATOM     17  C10 UNL     1       0.869  -1.584   0.329  1.00  0.00     0.117 C   
BRANCH  17  18
ATOM     18  N2  UNL     1       2.339  -1.509   0.679  1.00  0.00     0.249 N   
ATOM     19  H12 UNL     1       2.675  -2.393   1.067  1.00  0.00     0.199 HD  
ATOM     20  H13 UNL     1       2.419  -0.800   1.423  1.00  0.00     0.199 HD  
BRANCH  18  21
ATOM     21  C11 UNL     1       3.253  -1.070  -0.419  1.00  0.00     0.164 C   
BRANCH  21  22
ATOM     22  C12 UNL     1       3.286  -2.022  -1.583  1.00  0.00    -0.002 A   
ATOM     23  C13 UNL     1       2.762  -1.625  -2.839  1.00  0.00     0.012 A   
ATOM     24  C17 UNL     1       3.814  -3.317  -1.433  1.00  0.00     0.045 A   
ATOM     25  C14 UNL     1       2.758  -2.503  -3.929  1.00  0.00     0.037 A   
ATOM     26  C16 UNL     1       3.791  -4.159  -2.527  1.00  0.00     0.109 A   
ATOM     27  C15 UNL     1       3.279  -3.764  -3.739  1.00  0.00     0.108 A   
ATOM     28  O3  UNL     1       4.253  -5.437  -2.549  1.00  0.00    -0.316 OA  
ATOM     29  O4  UNL     1       3.357  -4.743  -4.678  1.00  0.00    -0.316 OA  
ATOM     30  C18 UNL     1       4.019  -5.789  -3.933  1.00  0.00     0.337 C   
ENDBRANCH  21  22
ENDBRANCH  18  21
ENDBRANCH  17  18
BRANCH  17  31
ATOM     31  C19 UNL     1       0.098  -2.397   1.391  1.00  0.00     0.043 C   
ATOM     32  C20 UNL     1       0.254  -1.946   2.858  1.00  0.00     0.010 C   
ATOM     33  C23 UNL     1       0.434  -3.894   1.399  1.00  0.00     0.010 C   
ATOM     34  C21 UNL     1       0.414  -3.224   3.682  1.00  0.00     0.001 C   
ATOM     35  C22 UNL     1      -0.048  -4.348   2.768  1.00  0.00     0.001 C   
ENDBRANCH  17  31
ENDBRANCH   3  17
TORSDOF 9
