REMARK SMILES CC(C)(C)[C@H]([NH2+]Cc1ccc2c(c1)OCO2)c1cn(-c2ccc(N([O-])[O-])cc2)nn1
REMARK SMILES IDX 17 1 18 2 19 3 29 4 30 5 5 6 2 7 1 8 3 9 4 10 6 11 7 14 8 15
REMARK SMILES IDX 9 16 13 17 10 18 12 19 11 20 14 21 16 22 15 23 20 24 21 25
REMARK SMILES IDX 28 26 22 27 27 28 23 29 24 30 25 31 26 32
REMARK H PARENT 6 12 6 13
ROOT
ATOM     1   C14 UNL     1       0.181   0.500   0.577  1.00  0.00     0.128 A   
ATOM     2   C15 UNL     1      -0.348   1.736   0.882  1.00  0.00     0.135 A   
ATOM     3   N2  UNL     1      -0.025   2.541  -0.194  1.00  0.00    -0.181 N   
ATOM     4   N4  UNL     1       0.623   1.789  -1.120  1.00  0.00    -0.071 NA  
ATOM     5   N5  UNL     1       0.762   0.559  -0.658  1.00  0.00    -0.131 NA  
ENDROOT
BRANCH   1   6
ATOM     6   C5  UNL     1       0.151  -0.809   1.315  1.00  0.00     0.120 C   
BRANCH   6   7
ATOM     7   C2  UNL     1       1.353  -1.015   2.304  1.00  0.00     0.010 C   
ATOM     8   C1  UNL     1       1.161  -2.315   3.120  1.00  0.00     0.017 C   
ATOM     9   C3  UNL     1       1.414   0.145   3.324  1.00  0.00     0.017 C   
ATOM     10  C4  UNL     1       2.711  -1.094   1.579  1.00  0.00     0.017 C   
ENDBRANCH   6   7
BRANCH   6  11
ATOM     11  N1  UNL     1       0.106  -1.934   0.307  1.00  0.00     0.250 N   
ATOM     12  H11 UNL     1       0.802  -1.712  -0.421  1.00  0.00     0.199 HD  
ATOM     13  H12 UNL     1       0.394  -2.832   0.706  1.00  0.00     0.199 HD  
BRANCH  11  14
ATOM     14  C6  UNL     1      -1.201  -2.127  -0.383  1.00  0.00     0.164 C   
BRANCH  14  15
ATOM     15  C7  UNL     1      -1.090  -3.211  -1.417  1.00  0.00    -0.002 A   
ATOM     16  C8  UNL     1      -0.642  -2.902  -2.724  1.00  0.00     0.012 A   
ATOM     17  C12 UNL     1      -1.372  -4.545  -1.078  1.00  0.00     0.045 A   
ATOM     18  C9  UNL     1      -0.489  -3.905  -3.687  1.00  0.00     0.037 A   
ATOM     19  C11 UNL     1      -1.210  -5.509  -2.051  1.00  0.00     0.109 A   
ATOM     20  C10 UNL     1      -0.781  -5.200  -3.318  1.00  0.00     0.108 A   
ATOM     21  O1  UNL     1      -1.438  -6.839  -1.890  1.00  0.00    -0.316 OA  
ATOM     22  O2  UNL     1      -0.688  -6.295  -4.115  1.00  0.00    -0.316 OA  
ATOM     23  C13 UNL     1      -1.127  -7.333  -3.213  1.00  0.00     0.337 C   
ENDBRANCH  14  15
ENDBRANCH  11  14
ENDBRANCH   6  11
ENDBRANCH   1   6
BRANCH   3  24
ATOM     24  C16 UNL     1      -0.296   3.918  -0.399  1.00  0.00     0.058 A   
ATOM     25  C17 UNL     1      -0.972   4.675   0.571  1.00  0.00     0.028 A   
ATOM     26  C21 UNL     1       0.123   4.534  -1.592  1.00  0.00     0.028 A   
ATOM     27  C18 UNL     1      -1.228   6.034   0.348  1.00  0.00     0.033 A   
ATOM     28  C20 UNL     1      -0.133   5.891  -1.817  1.00  0.00     0.033 A   
ATOM     29  C19 UNL     1      -0.809   6.637  -0.846  1.00  0.00     0.118 A   
BRANCH  29  30
ATOM     30  N3  UNL     1      -1.082   8.062  -1.077  1.00  0.00     0.092 N   
ATOM     31  O3  UNL     1      -0.695   8.555  -2.146  1.00  0.00    -0.138 OA  
ATOM     32  O4  UNL     1      -1.683   8.681  -0.189  1.00  0.00    -0.138 OA  
ENDBRANCH  29  30
ENDBRANCH   3  24
TORSDOF 7
