REMARK SMILES [O-]N([O-])c1ccc(-n2cc([C@@H]([NH2+]Cc3ccc4c(c3)OCO4)C3CCCCC3)nn2)cc1
REMARK SMILES IDX 8 1 9 2 10 3 29 4 30 5 7 6 4 7 5 8 32 9 6 10 31 11 2 12 1 13
REMARK SMILES IDX 3 14 11 15 12 16 13 19 14 20 15 21 19 22 16 23 18 24 17 25
REMARK SMILES IDX 20 26 22 27 21 28 23 29 24 30 28 31 25 32 27 33 26 34
REMARK H PARENT 12 17 12 18
ROOT
ATOM     1   N2  UNL     1      -1.693   1.129   1.594  1.00  0.00    -0.181 N   
ATOM     2   C5  UNL     1      -1.064   0.336   0.653  1.00  0.00     0.135 A   
ATOM     3   C6  UNL     1      -0.078   1.133   0.114  1.00  0.00     0.127 A   
ATOM     4   N4  UNL     1      -0.127   2.364   0.704  1.00  0.00    -0.131 NA  
ATOM     5   N5  UNL     1      -1.109   2.355   1.590  1.00  0.00    -0.071 NA  
ENDROOT
BRANCH   1   6
ATOM     6   C4  UNL     1      -2.776   0.815   2.455  1.00  0.00     0.058 A   
ATOM     7   C1  UNL     1      -4.915   0.239   4.173  1.00  0.00     0.118 A   
ATOM     8   C2  UNL     1      -4.318   1.504   4.210  1.00  0.00     0.033 A   
ATOM     9   C23 UNL     1      -4.449  -0.740   3.285  1.00  0.00     0.033 A   
ATOM     10  C3  UNL     1      -3.251   1.790   3.350  1.00  0.00     0.028 A   
ATOM     11  C22 UNL     1      -3.379  -0.452   2.427  1.00  0.00     0.028 A   
BRANCH   7  12
ATOM     12  N1  UNL     1      -6.036  -0.066   5.073  1.00  0.00     0.092 N   
ATOM     13  O1  UNL     1      -6.388   0.814   5.870  1.00  0.00    -0.138 OA  
ATOM     14  O2  UNL     1      -6.558  -1.184   4.976  1.00  0.00    -0.138 OA  
ENDBRANCH   7  12
ENDBRANCH   1   6
BRANCH   3  15
ATOM     15  C7  UNL     1       0.940   0.867  -0.952  1.00  0.00     0.117 C   
BRANCH  15  16
ATOM     16  N3  UNL     1       1.401   2.163  -1.576  1.00  0.00     0.249 N   
ATOM     17  H5  UNL     1       2.307   2.051  -2.038  1.00  0.00     0.199 HD  
ATOM     18  H6  UNL     1       1.541   2.823  -0.797  1.00  0.00     0.199 HD  
BRANCH  16  19
ATOM     19  C8  UNL     1       0.452   2.808  -2.531  1.00  0.00     0.164 C   
BRANCH  19  20
ATOM     20  C9  UNL     1       0.354   2.063  -3.834  1.00  0.00    -0.002 A   
ATOM     21  C10 UNL     1       1.414   2.118  -4.772  1.00  0.00     0.012 A   
ATOM     22  C14 UNL     1      -0.779   1.279  -4.117  1.00  0.00     0.045 A   
ATOM     23  C11 UNL     1       1.350   1.397  -5.971  1.00  0.00     0.037 A   
ATOM     24  C13 UNL     1      -0.807   0.580  -5.306  1.00  0.00     0.109 A   
ATOM     25  C12 UNL     1       0.227   0.636  -6.207  1.00  0.00     0.108 A   
ATOM     26  O3  UNL     1      -1.817  -0.229  -5.723  1.00  0.00    -0.316 OA  
ATOM     27  O4  UNL     1      -0.003  -0.125  -7.308  1.00  0.00    -0.316 OA  
ATOM     28  C15 UNL     1      -1.319  -0.644  -7.016  1.00  0.00     0.337 C   
ENDBRANCH  19  20
ENDBRANCH  16  19
ENDBRANCH  15  16
BRANCH  15  29
ATOM     29  C16 UNL     1       2.155   0.066  -0.410  1.00  0.00     0.043 C   
ATOM     30  C17 UNL     1       3.015  -0.507  -1.554  1.00  0.00     0.010 C   
ATOM     31  C21 UNL     1       3.038   0.857   0.576  1.00  0.00     0.010 C   
ATOM     32  C18 UNL     1       4.168  -1.356  -1.020  1.00  0.00     0.001 C   
ATOM     33  C20 UNL     1       4.192   0.005   1.103  1.00  0.00     0.001 C   
ATOM     34  C19 UNL     1       5.029  -0.577  -0.032  1.00  0.00     0.000 C   
ENDBRANCH  15  29
ENDBRANCH   3  15
TORSDOF 7
