REMARK SMILES CC(C)[C@H]([NH2+]Cc1ccc2c(c1)OCO2)c1cn(C[C@@H]2COc3ccccc3C2)nn1
REMARK SMILES IDX 4 1 2 2 1 3 3 4 5 5 6 8 7 9 8 10 12 11 9 12 11 13 10 14
REMARK SMILES IDX 13 15 15 16 14 17 16 18 17 19 31 20 18 21 30 22 19 24 20 25
REMARK SMILES IDX 21 26 29 27 22 28 28 29 23 30 27 31 24 32 26 33 25 34
REMARK H PARENT 5 6 5 7 17 23
ROOT
ATOM     1   C4  UNL     1       1.422   0.541   1.030  1.00  0.00     0.117 C   
ENDROOT
BRANCH   1   2
ATOM     2   C2  UNL     1       1.916   0.348   2.487  1.00  0.00     0.037 C   
ATOM     3   C1  UNL     1       2.154  -1.133   2.807  1.00  0.00     0.014 C   
ATOM     4   C3  UNL     1       3.168   1.161   2.837  1.00  0.00     0.014 C   
ENDBRANCH   1   2
BRANCH   1   5
ATOM     5   N1  UNL     1       2.535   0.251   0.053  1.00  0.00     0.249 N   
ATOM     6   H9  UNL     1       3.075   1.127  -0.018  1.00  0.00     0.199 HD  
ATOM     7   H10 UNL     1       3.174  -0.467   0.405  1.00  0.00     0.199 HD  
BRANCH   5   8
ATOM     8   C5  UNL     1       2.099  -0.108  -1.327  1.00  0.00     0.164 C   
BRANCH   8   9
ATOM     9   C6  UNL     1       1.734  -1.563  -1.436  1.00  0.00    -0.002 A   
ATOM     10  C7  UNL     1       0.380  -1.972  -1.403  1.00  0.00     0.012 A   
ATOM     11  C11 UNL     1       2.745  -2.536  -1.527  1.00  0.00     0.045 A   
ATOM     12  C8  UNL     1       0.033  -3.326  -1.465  1.00  0.00     0.037 A   
ATOM     13  C10 UNL     1       2.370  -3.862  -1.585  1.00  0.00     0.109 A   
ATOM     14  C9  UNL     1       1.053  -4.247  -1.555  1.00  0.00     0.108 A   
ATOM     15  O1  UNL     1       3.219  -4.920  -1.672  1.00  0.00    -0.316 OA  
ATOM     16  O2  UNL     1       0.905  -5.595  -1.621  1.00  0.00    -0.316 OA  
ATOM     17  C12 UNL     1       2.281  -6.019  -1.723  1.00  0.00     0.337 C   
ENDBRANCH   8   9
ENDBRANCH   5   8
ENDBRANCH   1   5
BRANCH   1  18
ATOM     18  C13 UNL     1       0.893   1.916   0.783  1.00  0.00     0.127 A   
ATOM     19  C14 UNL     1      -0.357   2.462   0.968  1.00  0.00     0.045 A   
ATOM     20  N4  UNL     1       1.720   2.857   0.222  1.00  0.00    -0.132 NA  
ATOM     21  N2  UNL     1      -0.242   3.721   0.449  1.00  0.00    -0.212 N   
ATOM     22  N3  UNL     1       1.018   3.962   0.042  1.00  0.00    -0.076 NA  
ATOM     23  H18 UNL     1      -1.288   2.079   1.360  1.00  0.00     0.083 HD  
BRANCH  21  24
ATOM     24  C15 UNL     1      -1.238   4.764   0.383  1.00  0.00     0.140 C   
BRANCH  24  25
ATOM     25  C16 UNL     1      -2.067   4.870  -0.913  1.00  0.00     0.039 C   
ATOM     26  C17 UNL     1      -3.157   3.803  -1.016  1.00  0.00     0.173 C   
ATOM     27  C24 UNL     1      -1.231   4.859  -2.197  1.00  0.00     0.046 C   
ATOM     28  O3  UNL     1      -2.637   2.487  -1.206  1.00  0.00    -0.345 OA  
ATOM     29  C23 UNL     1      -1.043   3.474  -2.755  1.00  0.00    -0.017 A   
ATOM     30  C18 UNL     1      -1.778   2.389  -2.268  1.00  0.00     0.078 A   
ATOM     31  C22 UNL     1      -0.158   3.266  -3.822  1.00  0.00     0.006 A   
ATOM     32  C19 UNL     1      -1.631   1.121  -2.828  1.00  0.00     0.034 A   
ATOM     33  C21 UNL     1      -0.014   1.997  -4.388  1.00  0.00     0.000 A   
ATOM     34  C20 UNL     1      -0.755   0.925  -3.895  1.00  0.00     0.003 A   
ENDBRANCH  24  25
ENDBRANCH  21  24
ENDBRANCH   1  18
TORSDOF 7
