REMARK SMILES COc1cccc(CCn2cc([C@@H]([NH2+]Cc3ccc4c(c3)OCO4)C3CCCC3)nn2)c1C
REMARK SMILES IDX 10 1 11 2 12 3 30 4 31 5 9 7 8 8 7 9 3 10 4 11 32 12 5 13
REMARK SMILES IDX 6 14 33 15 2 16 1 17 13 18 14 19 15 22 16 23 17 24 21 25
REMARK SMILES IDX 18 26 20 27 19 28 22 29 24 30 23 31 25 32 26 33 29 34 27 35
REMARK SMILES IDX 28 36
REMARK H PARENT 11 6 14 20 14 21
ROOT
ATOM     1   N1  UNL     1      -0.564   0.828  -2.900  1.00  0.00    -0.212 N   
ATOM     2   C9  UNL     1       0.047  -0.361  -2.615  1.00  0.00     0.045 A   
ATOM     3   C10 UNL     1      -0.524  -0.751  -1.424  1.00  0.00     0.127 A   
ATOM     4   N3  UNL     1      -1.476   0.168  -1.062  1.00  0.00    -0.132 NA  
ATOM     5   N4  UNL     1      -1.505   1.118  -1.984  1.00  0.00    -0.076 NA  
ATOM     6   H11 UNL     1       0.850  -0.759  -3.220  1.00  0.00     0.083 HD  
ENDROOT
BRANCH   1   7
ATOM     7   C8  UNL     1      -0.211   1.781  -3.933  1.00  0.00     0.139 C   
BRANCH   7   8
ATOM     8   C7  UNL     1       0.688   2.916  -3.420  1.00  0.00     0.057 C   
BRANCH   8   9
ATOM     9   C6  UNL     1       1.963   2.410  -2.764  1.00  0.00    -0.041 A   
ATOM     10  C2  UNL     1       3.308   1.825  -0.828  1.00  0.00     0.078 A   
ATOM     11  C3  UNL     1       4.247   1.205  -1.656  1.00  0.00     0.034 A   
ATOM     12  C25 UNL     1       2.166   2.449  -1.363  1.00  0.00    -0.018 A   
ATOM     13  C4  UNL     1       4.074   1.224  -3.036  1.00  0.00     0.003 A   
ATOM     14  C5  UNL     1       2.940   1.817  -3.585  1.00  0.00     0.004 A   
ATOM     15  C26 UNL     1       1.195   3.163  -0.456  1.00  0.00     0.047 C   
BRANCH  10  16
ATOM     16  O1  UNL     1       3.434   1.744   0.537  1.00  0.00    -0.349 OA  
ATOM     17  C1  UNL     1       4.642   2.357   0.997  1.00  0.00     0.203 C   
ENDBRANCH  10  16
ENDBRANCH   8   9
ENDBRANCH   7   8
ENDBRANCH   1   7
BRANCH   3  18
ATOM     18  C11 UNL     1      -0.170  -1.861  -0.492  1.00  0.00     0.117 C   
BRANCH  18  19
ATOM     19  N2  UNL     1      -0.138  -1.343   0.926  1.00  0.00     0.249 N   
ATOM     20  H13 UNL     1      -1.013  -0.818   1.071  1.00  0.00     0.199 HD  
ATOM     21  H14 UNL     1      -0.137  -2.107   1.608  1.00  0.00     0.199 HD  
BRANCH  19  22
ATOM     22  C12 UNL     1       0.990  -0.413   1.230  1.00  0.00     0.164 C   
BRANCH  22  23
ATOM     23  C13 UNL     1       0.900   0.083   2.645  1.00  0.00    -0.002 A   
ATOM     24  C14 UNL     1       1.642  -0.542   3.675  1.00  0.00     0.012 A   
ATOM     25  C18 UNL     1       0.043   1.154   2.958  1.00  0.00     0.045 A   
ATOM     26  C15 UNL     1       1.543  -0.100   4.999  1.00  0.00     0.037 A   
ATOM     27  C17 UNL     1      -0.030   1.564   4.272  1.00  0.00     0.109 A   
ATOM     28  C16 UNL     1       0.698   0.955   5.264  1.00  0.00     0.108 A   
ATOM     29  O2  UNL     1      -0.802   2.579   4.742  1.00  0.00    -0.316 OA  
ATOM     30  O3  UNL     1       0.480   1.513   6.483  1.00  0.00    -0.316 OA  
ATOM     31  C19 UNL     1      -0.459   2.557   6.145  1.00  0.00     0.337 C   
ENDBRANCH  22  23
ENDBRANCH  19  22
ENDBRANCH  18  19
BRANCH  18  32
ATOM     32  C20 UNL     1      -1.116  -3.074  -0.536  1.00  0.00     0.043 C   
ATOM     33  C21 UNL     1      -2.586  -2.814  -0.198  1.00  0.00     0.010 C   
ATOM     34  C24 UNL     1      -1.180  -3.792  -1.892  1.00  0.00     0.010 C   
ATOM     35  C22 UNL     1      -3.260  -4.102  -0.645  1.00  0.00     0.001 C   
ATOM     36  C23 UNL     1      -2.555  -4.464  -1.947  1.00  0.00     0.001 C   
ENDBRANCH  18  32
ENDBRANCH   3  18
TORSDOF 9
