REMARK SMILES CC(C)(C)c1cc(Cn2cc([C@@H]([NH2+]Cc3ccc4c(c3)OCO4)C3CCCC3)nn2)on1
REMARK SMILES IDX 9 1 10 2 11 3 29 4 30 5 8 7 7 8 5 9 6 10 32 11 31 12 2 13
REMARK SMILES IDX 1 14 3 15 4 16 12 17 13 18 14 21 15 22 16 23 20 24 17 25
REMARK SMILES IDX 19 26 18 27 21 28 23 29 22 30 24 31 25 32 28 33 26 34 27 35
REMARK H PARENT 10 6 13 19 13 20
ROOT
ATOM     1   N1  UNL     1      -0.454  -3.003   1.804  1.00  0.00    -0.206 N   
ATOM     2   C9  UNL     1       0.458  -2.174   1.208  1.00  0.00     0.046 A   
ATOM     3   C10 UNL     1       0.713  -1.220   2.170  1.00  0.00     0.127 A   
ATOM     4   N3  UNL     1       0.009  -1.522   3.305  1.00  0.00    -0.132 NA  
ATOM     5   N4  UNL     1      -0.699  -2.615   3.070  1.00  0.00    -0.076 NA  
ATOM     6   H13 UNL     1       0.777  -2.301   0.182  1.00  0.00     0.083 HD  
ENDROOT
BRANCH   1   7
ATOM     7   C8  UNL     1      -1.177  -4.122   1.219  1.00  0.00     0.198 C   
BRANCH   7   8
ATOM     8   C7  UNL     1      -2.009  -3.671   0.081  1.00  0.00     0.106 A   
ATOM     9   C5  UNL     1      -3.121  -3.196  -1.773  1.00  0.00     0.076 A   
ATOM     10  C6  UNL     1      -2.208  -4.125  -1.200  1.00  0.00     0.060 A   
ATOM     11  N5  UNL     1      -3.452  -2.254  -0.877  1.00  0.00    -0.133 NA  
ATOM     12  O3  UNL     1      -2.772  -2.563   0.279  1.00  0.00    -0.216 OA  
BRANCH   9  13
ATOM     13  C2  UNL     1      -3.732  -3.216  -3.164  1.00  0.00     0.007 C   
ATOM     14  C1  UNL     1      -4.399  -1.874  -3.524  1.00  0.00     0.017 C   
ATOM     15  C3  UNL     1      -2.647  -3.501  -4.225  1.00  0.00     0.017 C   
ATOM     16  C4  UNL     1      -4.801  -4.326  -3.233  1.00  0.00     0.017 C   
ENDBRANCH   9  13
ENDBRANCH   7   8
ENDBRANCH   1   7
BRANCH   3  17
ATOM     17  C11 UNL     1       1.508   0.042   2.104  1.00  0.00     0.117 C   
BRANCH  17  18
ATOM     18  N2  UNL     1       0.735   1.194   2.703  1.00  0.00     0.249 N   
ATOM     19  H15 UNL     1       0.525   0.932   3.675  1.00  0.00     0.199 HD  
ATOM     20  H16 UNL     1       1.310   2.038   2.728  1.00  0.00     0.199 HD  
BRANCH  18  21
ATOM     21  C12 UNL     1      -0.585   1.518   2.074  1.00  0.00     0.164 C   
BRANCH  21  22
ATOM     22  C13 UNL     1      -0.523   1.772   0.593  1.00  0.00    -0.002 A   
ATOM     23  C14 UNL     1      -1.289   0.972  -0.288  1.00  0.00     0.012 A   
ATOM     24  C18 UNL     1       0.275   2.806   0.069  1.00  0.00     0.045 A   
ATOM     25  C15 UNL     1      -1.243   1.174  -1.670  1.00  0.00     0.037 A   
ATOM     26  C17 UNL     1       0.299   2.976  -1.301  1.00  0.00     0.109 A   
ATOM     27  C16 UNL     1      -0.436   2.183  -2.145  1.00  0.00     0.108 A   
ATOM     28  O1  UNL     1       1.024   3.915  -1.967  1.00  0.00    -0.316 OA  
ATOM     29  O2  UNL     1      -0.267   2.520  -3.450  1.00  0.00    -0.316 OA  
ATOM     30  C19 UNL     1       0.626   3.651  -3.331  1.00  0.00     0.337 C   
ENDBRANCH  21  22
ENDBRANCH  18  21
ENDBRANCH  17  18
BRANCH  17  31
ATOM     31  C20 UNL     1       2.884  -0.118   2.786  1.00  0.00     0.043 C   
ATOM     32  C21 UNL     1       2.892  -0.214   4.315  1.00  0.00     0.010 C   
ATOM     33  C24 UNL     1       3.860   1.035   2.539  1.00  0.00     0.010 C   
ATOM     34  C22 UNL     1       4.364  -0.035   4.678  1.00  0.00     0.001 C   
ATOM     35  C23 UNL     1       4.978   0.801   3.553  1.00  0.00     0.001 C   
ENDBRANCH  17  31
ENDBRANCH   3  17
TORSDOF 8
