REMARK SMILES Cc1cc(Cl)cnc1Cn1cc([C@@H]([NH2+]Cc2ccc3c(c2)OCO3)C2CCCCC2)nn1
REMARK SMILES IDX 10 1 11 2 12 3 31 4 32 5 9 7 8 8 2 9 3 10 4 11 7 12 6 13
REMARK SMILES IDX 1 14 5 15 13 16 14 17 15 20 16 21 17 22 21 23 18 24 20 25
REMARK SMILES IDX 19 26 22 27 24 28 23 29 25 30 26 31 30 32 27 33 29 34 28 35
REMARK H PARENT 11 6 14 18 14 19
ROOT
ATOM     1   N2  UNL     1      -1.105   2.588  -0.082  1.00  0.00    -0.206 N   
ATOM     2   C8  UNL     1      -1.744   1.393  -0.281  1.00  0.00     0.046 A   
ATOM     3   C9  UNL     1      -0.723   0.503  -0.522  1.00  0.00     0.127 A   
ATOM     4   N4  UNL     1       0.470   1.182  -0.531  1.00  0.00    -0.132 NA  
ATOM     5   N5  UNL     1       0.222   2.457  -0.280  1.00  0.00    -0.076 NA  
ATOM     6   H8  UNL     1      -2.818   1.297  -0.193  1.00  0.00     0.083 HD  
ENDROOT
BRANCH   1   7
ATOM     7   C7  UNL     1      -1.688   3.876   0.246  1.00  0.00     0.190 C   
BRANCH   7   8
ATOM     8   C6  UNL     1      -2.206   3.872   1.662  1.00  0.00     0.063 A   
ATOM     9   C2  UNL     1      -1.424   4.277   2.756  1.00  0.00    -0.026 A   
ATOM     10  C3  UNL     1      -2.001   4.218   4.034  1.00  0.00     0.027 A   
ATOM     11  C4  UNL     1      -3.306   3.768   4.190  1.00  0.00     0.059 A   
ATOM     12  N1  UNL     1      -3.482   3.415   1.808  1.00  0.00    -0.258 NA  
ATOM     13  C5  UNL     1      -4.002   3.383   3.060  1.00  0.00     0.131 A   
ATOM     14  C1  UNL     1      -0.014   4.770   2.607  1.00  0.00     0.046 C   
ATOM     15  CL1 UNL     1      -4.027   3.685   5.743  1.00  0.00    -0.083 Cl  
ENDBRANCH   7   8
ENDBRANCH   1   7
BRANCH   3  16
ATOM     16  C10 UNL     1      -0.737  -0.966  -0.797  1.00  0.00     0.117 C   
BRANCH  16  17
ATOM     17  N3  UNL     1       0.434  -1.333  -1.677  1.00  0.00     0.249 N   
ATOM     18  H10 UNL     1       1.255  -0.836  -1.299  1.00  0.00     0.199 HD  
ATOM     19  H11 UNL     1       0.650  -2.333  -1.621  1.00  0.00     0.199 HD  
BRANCH  17  20
ATOM     20  C11 UNL     1       0.305  -0.939  -3.107  1.00  0.00     0.164 C   
BRANCH  20  21
ATOM     21  C12 UNL     1       1.558  -1.286  -3.860  1.00  0.00    -0.002 A   
ATOM     22  C13 UNL     1       1.661  -2.512  -4.559  1.00  0.00     0.012 A   
ATOM     23  C17 UNL     1       2.659  -0.411  -3.829  1.00  0.00     0.045 A   
ATOM     24  C14 UNL     1       2.841  -2.860  -5.227  1.00  0.00     0.037 A   
ATOM     25  C16 UNL     1       3.806  -0.785  -4.497  1.00  0.00     0.109 A   
ATOM     26  C15 UNL     1       3.895  -1.975  -5.176  1.00  0.00     0.108 A   
ATOM     27  O1  UNL     1       4.953  -0.061  -4.566  1.00  0.00    -0.316 OA  
ATOM     28  O2  UNL     1       5.108  -2.149  -5.761  1.00  0.00    -0.316 OA  
ATOM     29  C18 UNL     1       5.772  -0.922  -5.389  1.00  0.00     0.337 C   
ENDBRANCH  20  21
ENDBRANCH  17  20
ENDBRANCH  16  17
BRANCH  16  30
ATOM     30  C19 UNL     1      -0.686  -1.854   0.475  1.00  0.00     0.043 C   
ATOM     31  C20 UNL     1      -1.968  -1.715   1.320  1.00  0.00     0.010 C   
ATOM     32  C24 UNL     1       0.559  -1.626   1.355  1.00  0.00     0.010 C   
ATOM     33  C21 UNL     1      -1.951  -2.650   2.528  1.00  0.00     0.001 C   
ATOM     34  C23 UNL     1       0.568  -2.555   2.569  1.00  0.00     0.001 C   
ATOM     35  C22 UNL     1      -0.712  -2.430   3.389  1.00  0.00     0.000 C   
ENDBRANCH  16  30
ENDBRANCH   3  16
TORSDOF 7
