REMARK SMILES COc1cccc(C)c1CCn1cc([C@@H]([NH2+]Cc2ccc3c(c2)OCO3)C2CCCCC2)nn1
REMARK SMILES IDX 12 1 13 2 14 3 33 4 34 5 11 7 10 8 9 9 3 10 4 11 5 12 7 13
REMARK SMILES IDX 6 14 8 15 2 16 1 17 15 18 16 19 17 22 18 23 19 24 23 25
REMARK SMILES IDX 20 26 22 27 21 28 24 29 26 30 25 31 27 32 28 33 32 34 29 35
REMARK SMILES IDX 31 36 30 37
REMARK H PARENT 13 6 16 20 16 21
ROOT
ATOM     1   N1  UNL     1       2.482   1.020   2.317  1.00  0.00    -0.212 N   
ATOM     2   C11 UNL     1       1.521   1.804   1.746  1.00  0.00     0.045 A   
ATOM     3   C12 UNL     1       2.009   2.039   0.479  1.00  0.00     0.127 A   
ATOM     4   N3  UNL     1       3.266   1.506   0.374  1.00  0.00    -0.132 NA  
ATOM     5   N4  UNL     1       3.551   0.895   1.513  1.00  0.00    -0.076 NA  
ATOM     6   H14 UNL     1       0.567   1.981   2.221  1.00  0.00     0.083 HD  
ENDROOT
BRANCH   1   7
ATOM     7   C10 UNL     1       2.350   0.201   3.502  1.00  0.00     0.139 C   
BRANCH   7   8
ATOM     8   C9  UNL     1       1.766  -1.183   3.187  1.00  0.00     0.060 C   
BRANCH   8   9
ATOM     9   C8  UNL     1       0.329  -1.165   2.681  1.00  0.00    -0.013 A   
ATOM     10  C2  UNL     1       0.043  -1.260   1.301  1.00  0.00     0.078 A   
ATOM     11  C3  UNL     1      -1.266  -1.206   0.814  1.00  0.00     0.034 A   
ATOM     12  C4  UNL     1      -2.325  -1.079   1.702  1.00  0.00     0.003 A   
ATOM     13  C6  UNL     1      -0.760  -1.046   3.578  1.00  0.00    -0.045 A   
ATOM     14  C5  UNL     1      -2.073  -1.001   3.072  1.00  0.00     0.004 A   
ATOM     15  C7  UNL     1      -0.576  -0.999   5.074  1.00  0.00     0.045 C   
BRANCH  10  16
ATOM     16  O1  UNL     1       1.052  -1.337   0.368  1.00  0.00    -0.349 OA  
ATOM     17  C1  UNL     1       1.301  -2.716   0.058  1.00  0.00     0.203 C   
ENDBRANCH  10  16
ENDBRANCH   8   9
ENDBRANCH   7   8
ENDBRANCH   1   7
BRANCH   3  18
ATOM     18  C13 UNL     1       1.317   2.500  -0.761  1.00  0.00     0.117 C   
BRANCH  18  19
ATOM     19  N2  UNL     1       0.802   1.247  -1.434  1.00  0.00     0.249 N   
ATOM     20  H16 UNL     1      -0.204   1.129  -1.283  1.00  0.00     0.199 HD  
ATOM     21  H17 UNL     1       1.211   0.436  -0.932  1.00  0.00     0.199 HD  
BRANCH  19  22
ATOM     22  C14 UNL     1       1.167   1.083  -2.861  1.00  0.00     0.164 C   
BRANCH  22  23
ATOM     23  C15 UNL     1       0.551  -0.167  -3.420  1.00  0.00    -0.002 A   
ATOM     24  C16 UNL     1      -0.734  -0.132  -4.011  1.00  0.00     0.012 A   
ATOM     25  C20 UNL     1       1.226  -1.393  -3.303  1.00  0.00     0.045 A   
ATOM     26  C17 UNL     1      -1.337  -1.301  -4.488  1.00  0.00     0.037 A   
ATOM     27  C19 UNL     1       0.600  -2.528  -3.773  1.00  0.00     0.109 A   
ATOM     28  C18 UNL     1      -0.645  -2.483  -4.351  1.00  0.00     0.108 A   
ATOM     29  O2  UNL     1       1.103  -3.789  -3.719  1.00  0.00    -0.316 OA  
ATOM     30  O3  UNL     1      -1.078  -3.709  -4.744  1.00  0.00    -0.316 OA  
ATOM     31  C21 UNL     1       0.048  -4.533  -4.370  1.00  0.00     0.337 C   
ENDBRANCH  22  23
ENDBRANCH  19  22
ENDBRANCH  18  19
BRANCH  18  32
ATOM     32  C22 UNL     1       0.156   3.503  -0.522  1.00  0.00     0.043 C   
ATOM     33  C23 UNL     1      -0.614   3.838  -1.816  1.00  0.00     0.010 C   
ATOM     34  C27 UNL     1       0.686   4.810   0.112  1.00  0.00     0.010 C   
ATOM     35  C24 UNL     1      -1.718   4.870  -1.585  1.00  0.00     0.001 C   
ATOM     36  C26 UNL     1      -0.424   5.832   0.342  1.00  0.00     0.001 C   
ATOM     37  C25 UNL     1      -1.179   6.141  -0.944  1.00  0.00     0.000 C   
ENDBRANCH  18  32
ENDBRANCH   3  18
TORSDOF 9
