REMARK SMILES CC(C)C[C@H]([NH2+]Cc1ccc2c(c1)OCO2)c1cn(CCN(C)c2ccccc2)nn1
REMARK SMILES IDX 17 1 18 2 19 3 30 4 31 5 5 7 4 8 2 9 1 10 3 11 6 12 7 15
REMARK SMILES IDX 8 16 9 17 13 18 10 19 12 20 11 21 14 22 16 23 15 24 20 25
REMARK SMILES IDX 21 26 22 27 23 28 24 29 25 30 29 31 26 32 28 33 27 34
REMARK H PARENT 18 6 6 13 6 14
ROOT
ATOM     1   C14 UNL     1       0.756  -1.083  -1.804  1.00  0.00     0.127 A   
ATOM     2   C15 UNL     1       1.979  -0.560  -2.162  1.00  0.00     0.045 A   
ATOM     3   N2  UNL     1       2.864  -1.545  -1.826  1.00  0.00    -0.211 N   
ATOM     4   N4  UNL     1       2.225  -2.650  -1.399  1.00  0.00    -0.076 NA  
ATOM     5   N5  UNL     1       0.931  -2.375  -1.368  1.00  0.00    -0.132 NA  
ATOM     6   H20 UNL     1       2.308   0.417  -2.487  1.00  0.00     0.083 HD  
ENDROOT
BRANCH   1   7
ATOM     7   C5  UNL     1      -0.599  -0.473  -1.655  1.00  0.00     0.114 C   
BRANCH   7   8
ATOM     8   C4  UNL     1      -0.678   1.025  -1.997  1.00  0.00     0.064 C   
BRANCH   8   9
ATOM     9   C2  UNL     1      -0.609   1.332  -3.509  1.00  0.00    -0.012 C   
ATOM     10  C1  UNL     1      -0.341   2.825  -3.721  1.00  0.00     0.007 C   
ATOM     11  C3  UNL     1      -1.899   0.930  -4.230  1.00  0.00     0.007 C   
ENDBRANCH   8   9
ENDBRANCH   7   8
BRANCH   7  12
ATOM     12  N1  UNL     1      -0.984  -0.654  -0.208  1.00  0.00     0.249 N   
ATOM     13  H11 UNL     1      -0.519   0.059   0.371  1.00  0.00     0.199 HD  
ATOM     14  H12 UNL     1      -0.542  -1.536   0.101  1.00  0.00     0.199 HD  
BRANCH  12  15
ATOM     15  C6  UNL     1      -2.431  -0.742   0.090  1.00  0.00     0.164 C   
BRANCH  15  16
ATOM     16  C7  UNL     1      -2.653  -0.965   1.559  1.00  0.00    -0.002 A   
ATOM     17  C8  UNL     1      -2.733  -2.280   2.078  1.00  0.00     0.012 A   
ATOM     18  C12 UNL     1      -2.719   0.130   2.438  1.00  0.00     0.045 A   
ATOM     19  C9  UNL     1      -2.882  -2.505   3.451  1.00  0.00     0.037 A   
ATOM     20  C11 UNL     1      -2.855  -0.127   3.785  1.00  0.00     0.109 A   
ATOM     21  C10 UNL     1      -2.936  -1.406   4.278  1.00  0.00     0.108 A   
ATOM     22  O1  UNL     1      -2.897   0.811   4.765  1.00  0.00    -0.316 OA  
ATOM     23  O2  UNL     1      -3.054  -1.433   5.630  1.00  0.00    -0.316 OA  
ATOM     24  C13 UNL     1      -3.089  -0.022   5.932  1.00  0.00     0.337 C   
ENDBRANCH  15  16
ENDBRANCH  12  15
ENDBRANCH   7  12
ENDBRANCH   1   7
BRANCH   3  25
ATOM     25  C16 UNL     1       4.303  -1.444  -1.744  1.00  0.00     0.153 C   
BRANCH  25  26
ATOM     26  C17 UNL     1       4.778  -1.113  -0.326  1.00  0.00     0.126 C   
BRANCH  26  27
ATOM     27  N3  UNL     1       4.361   0.238   0.106  1.00  0.00    -0.332 N   
ATOM     28  C18 UNL     1       5.162   1.358  -0.390  1.00  0.00     0.130 C   
BRANCH  27  29
ATOM     29  C19 UNL     1       3.209   0.476   0.851  1.00  0.00     0.028 A   
ATOM     30  C20 UNL     1       2.612  -0.508   1.659  1.00  0.00     0.023 A   
ATOM     31  C24 UNL     1       2.586   1.739   0.868  1.00  0.00     0.023 A   
ATOM     32  C21 UNL     1       1.492  -0.244   2.460  1.00  0.00     0.002 A   
ATOM     33  C23 UNL     1       1.462   2.015   1.662  1.00  0.00     0.002 A   
ATOM     34  C22 UNL     1       0.923   1.023   2.471  1.00  0.00     0.000 A   
ENDBRANCH  27  29
ENDBRANCH  26  27
ENDBRANCH  25  26
ENDBRANCH   3  25
TORSDOF 10
