REMARK SMILES COc1cc(CCn2cc([C@@H]([NH2+]Cc3ccc4c(c3)OCO4)C3CCCC3)nn2)cc(C)n1
REMARK SMILES IDX 8 1 9 2 10 3 28 4 29 5 7 7 6 8 5 9 3 10 4 11 33 12 31 13
REMARK SMILES IDX 30 14 32 15 2 16 1 17 11 18 12 19 13 22 14 23 15 24 19 25
REMARK SMILES IDX 16 26 18 27 17 28 20 29 22 30 21 31 23 32 24 33 27 34 25 35
REMARK SMILES IDX 26 36
REMARK H PARENT 9 6 12 20 12 21
ROOT
ATOM     1   N1  UNL     1       0.284  -1.289   4.096  1.00  0.00    -0.212 N   
ATOM     2   C7  UNL     1       0.663  -0.137   3.465  1.00  0.00     0.045 A   
ATOM     3   C8  UNL     1      -0.495   0.311   2.871  1.00  0.00     0.127 A   
ATOM     4   N3  UNL     1      -1.520  -0.546   3.178  1.00  0.00    -0.132 NA  
ATOM     5   N4  UNL     1      -1.030  -1.522   3.927  1.00  0.00    -0.076 NA  
ATOM     6   H9  UNL     1       1.687   0.210   3.456  1.00  0.00     0.083 HD  
ENDROOT
BRANCH   1   7
ATOM     7   C6  UNL     1       1.133  -2.262   4.753  1.00  0.00     0.139 C   
BRANCH   7   8
ATOM     8   C5  UNL     1       1.354  -3.529   3.918  1.00  0.00     0.057 C   
BRANCH   8   9
ATOM     9   C4  UNL     1       1.906  -3.237   2.543  1.00  0.00    -0.040 A   
ATOM     10  C2  UNL     1       1.575  -2.862   0.203  1.00  0.00     0.167 A   
ATOM     11  C3  UNL     1       1.056  -3.223   1.434  1.00  0.00     0.058 A   
ATOM     12  N5  UNL     1       2.856  -2.494   0.009  1.00  0.00    -0.230 NA  
ATOM     13  C24 UNL     1       3.688  -2.557   1.076  1.00  0.00     0.041 A   
ATOM     14  C23 UNL     1       3.252  -2.914   2.351  1.00  0.00     0.027 A   
ATOM     15  C25 UNL     1       5.130  -2.211   0.845  1.00  0.00     0.067 C   
BRANCH  10  16
ATOM     16  O1  UNL     1       0.677  -2.783  -0.843  1.00  0.00    -0.333 OA  
ATOM     17  C1  UNL     1       1.323  -2.808  -2.115  1.00  0.00     0.205 C   
ENDBRANCH  10  16
ENDBRANCH   8   9
ENDBRANCH   7   8
ENDBRANCH   1   7
BRANCH   3  18
ATOM     18  C9  UNL     1      -0.734   1.452   1.937  1.00  0.00     0.117 C   
BRANCH  18  19
ATOM     19  N2  UNL     1      -1.583   0.999   0.774  1.00  0.00     0.249 N   
ATOM     20  H11 UNL     1      -1.880   1.791   0.198  1.00  0.00     0.199 HD  
ATOM     21  H12 UNL     1      -2.438   0.580   1.163  1.00  0.00     0.199 HD  
BRANCH  19  22
ATOM     22  C10 UNL     1      -0.952  -0.022  -0.112  1.00  0.00     0.164 C   
BRANCH  22  23
ATOM     23  C11 UNL     1      -1.832  -0.302  -1.298  1.00  0.00    -0.002 A   
ATOM     24  C12 UNL     1      -2.799  -1.334  -1.238  1.00  0.00     0.012 A   
ATOM     25  C16 UNL     1      -1.731   0.488  -2.456  1.00  0.00     0.045 A   
ATOM     26  C13 UNL     1      -3.650  -1.584  -2.319  1.00  0.00     0.037 A   
ATOM     27  C15 UNL     1      -2.586   0.214  -3.503  1.00  0.00     0.109 A   
ATOM     28  C14 UNL     1      -3.518  -0.792  -3.438  1.00  0.00     0.108 A   
ATOM     29  O2  UNL     1      -2.619   0.878  -4.689  1.00  0.00    -0.316 OA  
ATOM     30  O3  UNL     1      -4.255  -0.891  -4.575  1.00  0.00    -0.316 OA  
ATOM     31  C17 UNL     1      -3.671   0.159  -5.375  1.00  0.00     0.337 C   
ENDBRANCH  22  23
ENDBRANCH  19  22
ENDBRANCH  18  19
BRANCH  18  32
ATOM     32  C18 UNL     1      -1.446   2.629   2.631  1.00  0.00     0.043 C   
ATOM     33  C19 UNL     1      -0.631   3.248   3.770  1.00  0.00     0.010 C   
ATOM     34  C22 UNL     1      -1.697   3.840   1.722  1.00  0.00     0.010 C   
ATOM     35  C20 UNL     1      -1.335   4.572   4.026  1.00  0.00     0.001 C   
ATOM     36  C21 UNL     1      -1.807   5.045   2.655  1.00  0.00     0.001 C   
ENDBRANCH  18  32
ENDBRANCH   3  18
TORSDOF 9
