REMARK SMILES c1cc2c(cc1C[NH2+][C@H](c1cn(Cc3cn[nH]c3C3CC3)nn1)C1CCCCC1)OCO2
REMARK SMILES IDX 10 1 11 2 12 3 22 4 23 5 9 7 8 8 7 11 6 12 1 13 2 14 3 15
REMARK SMILES IDX 5 16 4 17 32 18 30 19 31 20 24 21 25 22 29 23 26 24 28 25
REMARK SMILES IDX 27 26 13 27 14 28 15 29 18 30 16 31 17 32 19 34 20 35 21 36
REMARK H PARENT 11 6 8 9 8 10 17 33
ROOT
ATOM     1   C9  UNL     1      -0.367  -0.096  -1.209  1.00  0.00     0.127 A   
ATOM     2   C10 UNL     1      -0.297  -1.186  -0.370  1.00  0.00     0.046 A   
ATOM     3   N2  UNL     1       0.073  -2.215  -1.194  1.00  0.00    -0.208 N   
ATOM     4   N5  UNL     1       0.211  -1.785  -2.464  1.00  0.00    -0.076 NA  
ATOM     5   N6  UNL     1      -0.049  -0.488  -2.484  1.00  0.00    -0.132 NA  
ATOM     6   H9  UNL     1      -0.437  -1.320   0.693  1.00  0.00     0.083 HD  
ENDROOT
BRANCH   1   7
ATOM     7   C8  UNL     1      -0.624   1.352  -0.925  1.00  0.00     0.117 C   
BRANCH   7   8
ATOM     8   N1  UNL     1       0.289   2.160  -1.820  1.00  0.00     0.249 N   
ATOM     9   H6  UNL     1       1.221   1.737  -1.730  1.00  0.00     0.199 HD  
ATOM     10  H7  UNL     1       0.033   1.956  -2.796  1.00  0.00     0.199 HD  
BRANCH   8  11
ATOM     11  C7  UNL     1       0.417   3.622  -1.593  1.00  0.00     0.164 C   
BRANCH  11  12
ATOM     12  C6  UNL     1       1.005   3.954  -0.251  1.00  0.00    -0.002 A   
ATOM     13  C1  UNL     1       2.390   3.772  -0.018  1.00  0.00     0.012 A   
ATOM     14  C2  UNL     1       2.947   4.024   1.240  1.00  0.00     0.037 A   
ATOM     15  C3  UNL     1       2.105   4.455   2.240  1.00  0.00     0.108 A   
ATOM     16  C5  UNL     1       0.181   4.405   0.795  1.00  0.00     0.045 A   
ATOM     17  C4  UNL     1       0.762   4.642   2.022  1.00  0.00     0.109 A   
ATOM     18  O2  UNL     1       2.469   4.734   3.518  1.00  0.00    -0.316 OA  
ATOM     19  O1  UNL     1       0.110   5.063   3.136  1.00  0.00    -0.316 OA  
ATOM     20  C24 UNL     1       1.206   5.150   4.078  1.00  0.00     0.337 C   
ENDBRANCH  11  12
ENDBRANCH   8  11
ENDBRANCH   7   8
BRANCH   7  21
ATOM     21  C18 UNL     1      -2.105   1.781  -1.100  1.00  0.00     0.043 C   
ATOM     22  C19 UNL     1      -2.646   1.639  -2.536  1.00  0.00     0.010 C   
ATOM     23  C23 UNL     1      -3.030   1.041  -0.112  1.00  0.00     0.010 C   
ATOM     24  C20 UNL     1      -4.096   2.113  -2.641  1.00  0.00     0.001 C   
ATOM     25  C22 UNL     1      -4.476   1.520  -0.221  1.00  0.00     0.001 C   
ATOM     26  C21 UNL     1      -5.001   1.395  -1.648  1.00  0.00     0.000 C   
ENDBRANCH   7  21
ENDBRANCH   1   7
BRANCH   3  27
ATOM     27  C11 UNL     1       0.363  -3.595  -0.834  1.00  0.00     0.172 C   
BRANCH  27  28
ATOM     28  C12 UNL     1       1.734  -3.695  -0.275  1.00  0.00     0.010 A   
ATOM     29  C13 UNL     1       2.948  -3.652  -1.005  1.00  0.00     0.138 A   
ATOM     30  C14 UNL     1       2.153  -3.834   1.032  1.00  0.00     0.034 A   
ATOM     31  N3  UNL     1       4.024  -3.722  -0.223  1.00  0.00    -0.192 NA  
ATOM     32  N4  UNL     1       3.518  -3.863   1.010  1.00  0.00    -0.242 N   
ATOM     33  H13 UNL     1       4.158  -3.967   1.790  1.00  0.00     0.175 HD  
BRANCH  30  34
ATOM     34  C15 UNL     1       1.282  -3.912   2.306  1.00  0.00     0.036 C   
ATOM     35  C16 UNL     1       1.530  -5.034   3.279  1.00  0.00     0.010 C   
ATOM     36  C17 UNL     1       0.276  -5.020   2.454  1.00  0.00     0.010 C   
ENDBRANCH  30  34
ENDBRANCH  27  28
ENDBRANCH   3  27
TORSDOF 8
