REMARK SMILES c1cc2c(cc1C[NH2+][C@H](c1cn(Cc3cn[nH]c3C3CCC3)nn1)C1CCCCC1)OCO2
REMARK SMILES IDX 10 1 11 2 12 3 23 4 24 5 9 7 8 8 7 11 6 12 1 13 2 14 3 15
REMARK SMILES IDX 5 16 4 17 33 18 31 19 32 20 25 21 26 22 30 23 27 24 29 25
REMARK SMILES IDX 28 26 13 27 14 28 15 29 18 30 16 31 17 32 19 34 20 35 22 36
REMARK SMILES IDX 21 37
REMARK H PARENT 11 6 8 9 8 10 17 33
ROOT
ATOM     1   C9  UNL     1       0.517   0.220   0.003  1.00  0.00     0.127 A   
ATOM     2   C10 UNL     1       0.915   1.189  -0.889  1.00  0.00     0.046 A   
ATOM     3   N2  UNL     1       1.980   1.793  -0.274  1.00  0.00    -0.208 N   
ATOM     4   N5  UNL     1       2.213   1.232   0.929  1.00  0.00    -0.076 NA  
ATOM     5   N6  UNL     1       1.323   0.271   1.110  1.00  0.00    -0.132 NA  
ATOM     6   H9  UNL     1       0.562   1.491  -1.866  1.00  0.00     0.083 HD  
ENDROOT
BRANCH   1   7
ATOM     7   C8  UNL     1      -0.574  -0.803  -0.070  1.00  0.00     0.117 C   
BRANCH   7   8
ATOM     8   N1  UNL     1      -0.292  -1.933   0.883  1.00  0.00     0.249 N   
ATOM     9   H6  UNL     1      -1.139  -2.438   1.158  1.00  0.00     0.199 HD  
ATOM     10  H7  UNL     1       0.078  -1.504   1.746  1.00  0.00     0.199 HD  
BRANCH   8  11
ATOM     11  C7  UNL     1       0.729  -2.912   0.415  1.00  0.00     0.164 C   
BRANCH  11  12
ATOM     12  C6  UNL     1       1.040  -3.906   1.498  1.00  0.00    -0.002 A   
ATOM     13  C1  UNL     1       0.337  -5.132   1.573  1.00  0.00     0.012 A   
ATOM     14  C2  UNL     1       0.598  -6.047   2.599  1.00  0.00     0.037 A   
ATOM     15  C3  UNL     1       1.555  -5.714   3.532  1.00  0.00     0.108 A   
ATOM     16  C5  UNL     1       2.004  -3.599   2.474  1.00  0.00     0.045 A   
ATOM     17  C4  UNL     1       2.239  -4.524   3.470  1.00  0.00     0.109 A   
ATOM     18  O2  UNL     1       1.938  -6.477   4.587  1.00  0.00    -0.316 OA  
ATOM     19  O1  UNL     1       3.136  -4.389   4.480  1.00  0.00    -0.316 OA  
ATOM     20  C25 UNL     1       2.963  -5.645   5.173  1.00  0.00     0.337 C   
ENDBRANCH  11  12
ENDBRANCH   8  11
ENDBRANCH   7   8
BRANCH   7  21
ATOM     21  C19 UNL     1      -1.969  -0.184   0.215  1.00  0.00     0.043 C   
ATOM     22  C20 UNL     1      -2.155   0.298   1.667  1.00  0.00     0.010 C   
ATOM     23  C24 UNL     1      -3.112  -1.141  -0.180  1.00  0.00     0.010 C   
ATOM     24  C21 UNL     1      -3.530   0.933   1.877  1.00  0.00     0.001 C   
ATOM     25  C23 UNL     1      -4.482  -0.501   0.035  1.00  0.00     0.001 C   
ATOM     26  C22 UNL     1      -4.655  -0.013   1.469  1.00  0.00     0.000 C   
ENDBRANCH   7  21
ENDBRANCH   1   7
BRANCH   3  27
ATOM     27  C11 UNL     1       2.787   2.918  -0.730  1.00  0.00     0.172 C   
BRANCH  27  28
ATOM     28  C12 UNL     1       3.174   2.771  -2.160  1.00  0.00     0.010 A   
ATOM     29  C13 UNL     1       3.955   1.735  -2.728  1.00  0.00     0.138 A   
ATOM     30  C14 UNL     1       2.884   3.586  -3.238  1.00  0.00     0.034 A   
ATOM     31  N3  UNL     1       4.088   1.858  -4.048  1.00  0.00    -0.192 NA  
ATOM     32  N4  UNL     1       3.464   3.010  -4.333  1.00  0.00    -0.242 N   
ATOM     33  H13 UNL     1       3.466   3.335  -5.296  1.00  0.00     0.175 HD  
BRANCH  30  34
ATOM     34  C15 UNL     1       2.074   4.923  -3.206  1.00  0.00     0.035 C   
ATOM     35  C16 UNL     1       0.537   4.734  -3.256  1.00  0.00     0.010 C   
ATOM     36  C18 UNL     1       1.945   5.694  -4.543  1.00  0.00     0.010 C   
ATOM     37  C17 UNL     1       0.608   4.966  -4.778  1.00  0.00     0.001 C   
ENDBRANCH  30  34
ENDBRANCH  27  28
ENDBRANCH   3  27
TORSDOF 8
