REMARK SMILES COc1ccc(O)c(Cn2cc([C@@H]([NH2+]Cc3ccc4c(c3)OCO4)C(C)C)nn2)c1
REMARK SMILES IDX 10 1 11 2 12 3 28 4 29 5 9 7 8 8 3 9 4 10 30 11 5 12 6 13
REMARK SMILES IDX 2 14 1 15 7 16 13 18 14 19 15 22 16 23 17 24 21 25 18 26
REMARK SMILES IDX 20 27 19 28 22 29 24 30 23 31 25 32 26 33 27 34
REMARK H PARENT 11 6 7 17 14 20 14 21
ROOT
ATOM     1   N1  UNL     1       1.928   2.154  -0.741  1.00  0.00    -0.208 N   
ATOM     2   C8  UNL     1       1.945   0.983  -0.032  1.00  0.00     0.046 A   
ATOM     3   C9  UNL     1       1.309   0.081  -0.857  1.00  0.00     0.127 A   
ATOM     4   N3  UNL     1       0.962   0.710  -2.025  1.00  0.00    -0.132 NA  
ATOM     5   N4  UNL     1       1.341   1.975  -1.940  1.00  0.00    -0.076 NA  
ATOM     6   H9  UNL     1       2.365   0.924   0.962  1.00  0.00     0.083 HD  
ENDROOT
BRANCH   1   7
ATOM     7   C7  UNL     1       2.429   3.461  -0.350  1.00  0.00     0.172 C   
BRANCH   7   8
ATOM     8   C6  UNL     1       1.738   3.966   0.891  1.00  0.00     0.004 A   
ATOM     9   C2  UNL     1      -0.205   5.013   1.936  1.00  0.00     0.075 A   
ATOM     10  C3  UNL     1       0.420   4.924   3.181  1.00  0.00     0.036 A   
ATOM     11  C22 UNL     1       0.456   4.534   0.801  1.00  0.00     0.041 A   
ATOM     12  C4  UNL     1       1.688   4.349   3.289  1.00  0.00     0.036 A   
ATOM     13  C5  UNL     1       2.333   3.871   2.150  1.00  0.00     0.076 A   
BRANCH   9  14
ATOM     14  O1  UNL     1      -1.447   5.533   1.691  1.00  0.00    -0.349 OA  
ATOM     15  C1  UNL     1      -2.124   6.134   2.792  1.00  0.00     0.203 C   
ENDBRANCH   9  14
BRANCH  13  16
ATOM     16  O2  UNL     1       3.562   3.288   2.251  1.00  0.00    -0.361 OA  
ATOM     17  H6  UNL     1       3.934   3.494   3.129  1.00  0.00     0.218 HD  
ENDBRANCH  13  16
ENDBRANCH   7   8
ENDBRANCH   1   7
BRANCH   3  18
ATOM     18  C10 UNL     1       0.916  -1.345  -0.649  1.00  0.00     0.117 C   
BRANCH  18  19
ATOM     19  N2  UNL     1      -0.295  -1.669  -1.489  1.00  0.00     0.249 N   
ATOM     20  H11 UNL     1      -0.409  -2.680  -1.611  1.00  0.00     0.199 HD  
ATOM     21  H12 UNL     1      -0.124  -1.275  -2.425  1.00  0.00     0.199 HD  
BRANCH  19  22
ATOM     22  C11 UNL     1      -1.581  -1.091  -1.001  1.00  0.00     0.164 C   
BRANCH  22  23
ATOM     23  C12 UNL     1      -2.703  -1.445  -1.935  1.00  0.00    -0.002 A   
ATOM     24  C13 UNL     1      -2.881  -0.723  -3.144  1.00  0.00     0.012 A   
ATOM     25  C17 UNL     1      -3.550  -2.528  -1.643  1.00  0.00     0.045 A   
ATOM     26  C14 UNL     1      -3.889  -1.075  -4.052  1.00  0.00     0.037 A   
ATOM     27  C16 UNL     1      -4.533  -2.847  -2.557  1.00  0.00     0.109 A   
ATOM     28  C15 UNL     1      -4.697  -2.144  -3.730  1.00  0.00     0.108 A   
ATOM     29  O3  UNL     1      -5.429  -3.861  -2.427  1.00  0.00    -0.316 OA  
ATOM     30  O4  UNL     1      -5.716  -2.628  -4.489  1.00  0.00    -0.316 OA  
ATOM     31  C18 UNL     1      -6.192  -3.708  -3.652  1.00  0.00     0.337 C   
ENDBRANCH  22  23
ENDBRANCH  19  22
ENDBRANCH  18  19
BRANCH  18  32
ATOM     32  C19 UNL     1       2.026  -2.373  -0.982  1.00  0.00     0.037 C   
ATOM     33  C20 UNL     1       2.560  -2.279  -2.417  1.00  0.00     0.014 C   
ATOM     34  C21 UNL     1       3.186  -2.294   0.019  1.00  0.00     0.014 C   
ENDBRANCH  18  32
ENDBRANCH   3  18
TORSDOF 9
