REMARK SMILES CC(C)C[C@H]([NH2+]Cc1ccc2c(c1)OCO2)c1cn(Cc2ccc(O)cc2F)nn1
REMARK SMILES IDX 17 1 18 2 19 3 29 4 30 5 5 7 4 8 2 9 1 10 3 11 6 12 7 15
REMARK SMILES IDX 8 16 9 17 13 18 10 19 12 20 11 21 14 22 16 23 15 24 20 25
REMARK SMILES IDX 21 26 22 27 27 28 23 29 26 30 24 31 28 32 25 33
REMARK H PARENT 18 6 6 13 6 14 25 34
ROOT
ATOM     1   C14 UNL     1       0.679  -1.392  -2.259  1.00  0.00     0.127 A   
ATOM     2   C15 UNL     1       0.346  -0.458  -3.214  1.00  0.00     0.046 A   
ATOM     3   N2  UNL     1      -1.021  -0.513  -3.268  1.00  0.00    -0.208 N   
ATOM     4   N3  UNL     1      -1.498  -1.432  -2.405  1.00  0.00    -0.076 NA  
ATOM     5   N4  UNL     1      -0.467  -1.975  -1.779  1.00  0.00    -0.132 NA  
ATOM     6   H20 UNL     1       0.920   0.232  -3.819  1.00  0.00     0.083 HD  
ENDROOT
BRANCH   1   7
ATOM     7   C5  UNL     1       1.993  -1.771  -1.662  1.00  0.00     0.114 C   
BRANCH   7   8
ATOM     8   C4  UNL     1       2.525  -3.113  -2.199  1.00  0.00     0.064 C   
BRANCH   8   9
ATOM     9   C2  UNL     1       2.805  -3.146  -3.717  1.00  0.00    -0.012 C   
ATOM     10  C1  UNL     1       3.875  -2.135  -4.138  1.00  0.00     0.007 C   
ATOM     11  C3  UNL     1       3.236  -4.556  -4.133  1.00  0.00     0.007 C   
ENDBRANCH   8   9
ENDBRANCH   7   8
BRANCH   7  12
ATOM     12  N1  UNL     1       1.831  -1.924  -0.167  1.00  0.00     0.249 N   
ATOM     13  H11 UNL     1       2.595  -2.469   0.246  1.00  0.00     0.199 HD  
ATOM     14  H12 UNL     1       0.971  -2.477  -0.022  1.00  0.00     0.199 HD  
BRANCH  12  15
ATOM     15  C6  UNL     1       1.671  -0.647   0.584  1.00  0.00     0.164 C   
BRANCH  15  16
ATOM     16  C7  UNL     1       1.305  -0.914   2.017  1.00  0.00    -0.002 A   
ATOM     17  C8  UNL     1       2.304  -1.006   3.015  1.00  0.00     0.012 A   
ATOM     18  C12 UNL     1      -0.043  -1.115   2.364  1.00  0.00     0.045 A   
ATOM     19  C9  UNL     1       1.965  -1.279   4.345  1.00  0.00     0.037 A   
ATOM     20  C11 UNL     1      -0.342  -1.378   3.684  1.00  0.00     0.109 A   
ATOM     21  C10 UNL     1       0.633  -1.456   4.647  1.00  0.00     0.108 A   
ATOM     22  O1  UNL     1      -1.587  -1.584   4.186  1.00  0.00    -0.316 OA  
ATOM     23  O2  UNL     1       0.123  -1.719   5.879  1.00  0.00    -0.316 OA  
ATOM     24  C13 UNL     1      -1.290  -1.769   5.589  1.00  0.00     0.337 C   
ENDBRANCH  15  16
ENDBRANCH  12  15
ENDBRANCH   7  12
ENDBRANCH   1   7
BRANCH   3  25
ATOM     25  C16 UNL     1      -1.924   0.283  -4.080  1.00  0.00     0.172 C   
BRANCH  25  26
ATOM     26  C17 UNL     1      -2.424   1.474  -3.310  1.00  0.00     0.007 A   
ATOM     27  C18 UNL     1      -3.677   1.458  -2.680  1.00  0.00     0.011 A   
ATOM     28  C22 UNL     1      -1.622   2.611  -3.175  1.00  0.00     0.130 A   
ATOM     29  C19 UNL     1      -4.111   2.565  -1.944  1.00  0.00     0.034 A   
ATOM     30  C21 UNL     1      -2.043   3.716  -2.445  1.00  0.00     0.072 A   
ATOM     31  C20 UNL     1      -3.289   3.683  -1.833  1.00  0.00     0.074 A   
ATOM     32  F1  UNL     1      -0.410   2.635  -3.752  1.00  0.00    -0.207 F   
BRANCH  31  33
ATOM     33  O3  UNL     1      -3.672   4.779  -1.119  1.00  0.00    -0.361 OA  
ATOM     34  H25 UNL     1      -4.587   4.661  -0.817  1.00  0.00     0.218 HD  
ENDBRANCH  31  33
ENDBRANCH  25  26
ENDBRANCH   3  25
TORSDOF 9
