REMARK SMILES COc1ccccc1CCn1cc([C@@H]([NH2+]Cc2ccc3c(c2)OCO3)C(C)C)nn1
REMARK SMILES IDX 11 1 12 2 13 3 29 4 30 5 10 7 9 8 8 9 3 10 4 11 5 12 7 13
REMARK SMILES IDX 6 14 2 15 1 16 14 17 15 18 16 21 17 22 18 23 22 24 19 25
REMARK SMILES IDX 21 26 20 27 23 28 25 29 24 30 26 31 27 32 28 33
REMARK H PARENT 12 6 15 19 15 20
ROOT
ATOM     1   N1  UNL     1       2.400   0.800   0.779  1.00  0.00    -0.212 N   
ATOM     2   C10 UNL     1       1.135   1.288   0.610  1.00  0.00     0.045 A   
ATOM     3   C11 UNL     1       0.341   0.386   1.280  1.00  0.00     0.127 A   
ATOM     4   N3  UNL     1       1.131  -0.599   1.817  1.00  0.00    -0.132 NA  
ATOM     5   N4  UNL     1       2.388  -0.334   1.504  1.00  0.00    -0.076 NA  
ATOM     6   H12 UNL     1       0.932   2.179   0.033  1.00  0.00     0.083 HD  
ENDROOT
BRANCH   1   7
ATOM     7   C9  UNL     1       3.638   1.334   0.253  1.00  0.00     0.139 C   
BRANCH   7   8
ATOM     8   C8  UNL     1       4.201   0.511  -0.907  1.00  0.00     0.059 C   
BRANCH   8   9
ATOM     9   C7  UNL     1       3.257   0.351  -2.084  1.00  0.00    -0.016 A   
ATOM     10  C2  UNL     1       2.882   1.445  -2.886  1.00  0.00     0.078 A   
ATOM     11  C3  UNL     1       2.016   1.246  -3.967  1.00  0.00     0.034 A   
ATOM     12  C4  UNL     1       1.544  -0.034  -4.270  1.00  0.00     0.003 A   
ATOM     13  C6  UNL     1       2.771  -0.930  -2.399  1.00  0.00     0.006 A   
ATOM     14  C5  UNL     1       1.924  -1.121  -3.489  1.00  0.00     0.000 A   
BRANCH  10  15
ATOM     15  O1  UNL     1       3.392   2.663  -2.522  1.00  0.00    -0.349 OA  
ATOM     16  C1  UNL     1       3.388   3.680  -3.519  1.00  0.00     0.203 C   
ENDBRANCH  10  15
ENDBRANCH   8   9
ENDBRANCH   7   8
ENDBRANCH   1   7
BRANCH   3  17
ATOM     17  C12 UNL     1      -1.143   0.289   1.403  1.00  0.00     0.117 C   
BRANCH  17  18
ATOM     18  N2  UNL     1      -1.575  -1.160   1.321  1.00  0.00     0.249 N   
ATOM     19  H14 UNL     1      -0.995  -1.671   2.001  1.00  0.00     0.199 HD  
ATOM     20  H15 UNL     1      -2.552  -1.257   1.611  1.00  0.00     0.199 HD  
BRANCH  18  21
ATOM     21  C13 UNL     1      -1.380  -1.830  -0.000  1.00  0.00     0.164 C   
BRANCH  21  22
ATOM     22  C14 UNL     1      -2.268  -1.273  -1.078  1.00  0.00    -0.002 A   
ATOM     23  C15 UNL     1      -1.731  -0.419  -2.071  1.00  0.00     0.012 A   
ATOM     24  C19 UNL     1      -3.641  -1.571  -1.091  1.00  0.00     0.045 A   
ATOM     25  C16 UNL     1      -2.546   0.130  -3.067  1.00  0.00     0.037 A   
ATOM     26  C18 UNL     1      -4.417  -1.013  -2.086  1.00  0.00     0.109 A   
ATOM     27  C17 UNL     1      -3.886  -0.187  -3.046  1.00  0.00     0.108 A   
ATOM     28  O2  UNL     1      -5.755  -1.196  -2.239  1.00  0.00    -0.316 OA  
ATOM     29  O3  UNL     1      -4.822   0.251  -3.927  1.00  0.00    -0.316 OA  
ATOM     30  C20 UNL     1      -6.003  -0.416  -3.431  1.00  0.00     0.337 C   
ENDBRANCH  21  22
ENDBRANCH  18  21
ENDBRANCH  17  18
BRANCH  17  31
ATOM     31  C21 UNL     1      -1.717   0.900   2.709  1.00  0.00     0.037 C   
ATOM     32  C22 UNL     1      -1.495   2.417   2.762  1.00  0.00     0.014 C   
ATOM     33  C23 UNL     1      -1.192   0.257   3.997  1.00  0.00     0.014 C   
ENDBRANCH  17  31
ENDBRANCH   3  17
TORSDOF 9
