REMARK SMILES Cc1cc(-n2cc([C@@H]([NH2+]Cc3ccc4c(c3)OCO4)C3CCCC3)nn2)c2cc[nH]c2n1
REMARK SMILES IDX 8 1 7 2 5 3 6 4 26 5 25 6 4 7 2 8 3 9 32 10 31 11 27 12
REMARK SMILES IDX 30 13 28 14 29 15 1 16 9 18 10 21 11 22 12 23 16 24 13 25
REMARK SMILES IDX 15 26 14 27 17 28 19 29 18 30 20 31 21 32 24 33 22 34 23 35
REMARK H PARENT 30 17 9 19 9 20
ROOT
ATOM     1   C7  UNL     1       0.260  -0.610  -1.269  1.00  0.00     0.117 C   
ENDROOT
BRANCH   1   2
ATOM     2   C6  UNL     1       0.806  -0.401   0.106  1.00  0.00     0.127 A   
ATOM     3   N1  UNL     1       1.183   0.102   2.204  1.00  0.00    -0.180 N   
ATOM     4   C5  UNL     1       0.174  -0.194   1.311  1.00  0.00     0.135 A   
ATOM     5   N4  UNL     1       2.376  -0.024   1.558  1.00  0.00    -0.071 NA  
ATOM     6   N3  UNL     1       2.154  -0.296   0.283  1.00  0.00    -0.131 NA  
BRANCH   3   7
ATOM     7   C4  UNL     1       1.119   0.493   3.562  1.00  0.00     0.070 A   
ATOM     8   C2  UNL     1       2.306   0.961   5.630  1.00  0.00     0.041 A   
ATOM     9   C3  UNL     1       2.324   0.592   4.288  1.00  0.00     0.050 A   
ATOM     10  N6  UNL     1       1.181   1.246   6.314  1.00  0.00    -0.237 NA  
ATOM     11  C24 UNL     1       0.056   1.158   5.589  1.00  0.00     0.131 A   
ATOM     12  C21 UNL     1      -0.079   0.806   4.245  1.00  0.00     0.040 A   
ATOM     13  N5  UNL     1      -1.181   1.420   6.107  1.00  0.00    -0.305 N   
ATOM     14  C22 UNL     1      -1.478   0.910   3.971  1.00  0.00     0.029 A   
ATOM     15  C23 UNL     1      -2.127   1.281   5.130  1.00  0.00     0.074 A   
ATOM     16  C1  UNL     1       3.599   1.051   6.390  1.00  0.00     0.067 C   
ATOM     17  H27 UNL     1      -1.337   1.687   7.069  1.00  0.00     0.154 HD  
ENDBRANCH   3   7
ENDBRANCH   1   2
BRANCH   1  18
ATOM     18  N2  UNL     1       1.012   0.262  -2.251  1.00  0.00     0.249 N   
ATOM     19  H7  UNL     1       1.116  -0.205  -3.156  1.00  0.00     0.199 HD  
ATOM     20  H8  UNL     1       1.969   0.354  -1.873  1.00  0.00     0.199 HD  
BRANCH  18  21
ATOM     21  C8  UNL     1       0.468   1.635  -2.475  1.00  0.00     0.164 C   
BRANCH  21  22
ATOM     22  C9  UNL     1       0.453   2.494  -1.241  1.00  0.00    -0.002 A   
ATOM     23  C10 UNL     1       1.663   3.007  -0.714  1.00  0.00     0.012 A   
ATOM     24  C14 UNL     1      -0.754   2.741  -0.564  1.00  0.00     0.045 A   
ATOM     25  C11 UNL     1       1.675   3.736   0.481  1.00  0.00     0.037 A   
ATOM     26  C13 UNL     1      -0.705   3.456   0.615  1.00  0.00     0.109 A   
ATOM     27  C12 UNL     1       0.475   3.938   1.124  1.00  0.00     0.108 A   
ATOM     28  O1  UNL     1      -1.769   3.748   1.408  1.00  0.00    -0.316 OA  
ATOM     29  O2  UNL     1       0.303   4.602   2.296  1.00  0.00    -0.316 OA  
ATOM     30  C15 UNL     1      -1.128   4.513   2.456  1.00  0.00     0.337 C   
ENDBRANCH  21  22
ENDBRANCH  18  21
ENDBRANCH   1  18
BRANCH   1  31
ATOM     31  C16 UNL     1       0.321  -2.091  -1.690  1.00  0.00     0.043 C   
ATOM     32  C17 UNL     1      -0.441  -2.412  -2.980  1.00  0.00     0.010 C   
ATOM     33  C20 UNL     1       1.722  -2.683  -1.925  1.00  0.00     0.010 C   
ATOM     34  C18 UNL     1       0.074  -3.797  -3.337  1.00  0.00     0.001 C   
ATOM     35  C19 UNL     1       1.565  -3.716  -3.044  1.00  0.00     0.001 C   
ENDBRANCH   1  31
TORSDOF 6
