REMARK SMILES Cc1ccc(N)cc1-n1cc([C@@H]([NH2+]Cc2ccc3c(c2)OCO3)C(C)C)nn1
REMARK SMILES IDX 9 1 10 2 11 3 27 4 28 5 8 6 2 7 3 8 4 9 7 10 5 11 1 12 6 13
REMARK SMILES IDX 12 16 13 17 14 20 15 21 16 22 20 23 17 24 19 25 18 26 21 27
REMARK SMILES IDX 23 28 22 29 24 30 25 31 26 32
REMARK H PARENT 6 14 6 15 13 18 13 19
ROOT
ATOM     1   N2  UNL     1      -1.847   0.688  -2.194  1.00  0.00    -0.180 N   
ATOM     2   C8  UNL     1      -0.806  -0.186  -2.479  1.00  0.00     0.135 A   
ATOM     3   C9  UNL     1      -0.232  -0.483  -1.263  1.00  0.00     0.127 A   
ATOM     4   N4  UNL     1      -0.882   0.210  -0.286  1.00  0.00    -0.131 NA  
ATOM     5   N5  UNL     1      -1.843   0.914  -0.856  1.00  0.00    -0.071 NA  
ENDROOT
BRANCH   1   6
ATOM     6   C7  UNL     1      -2.769   1.300  -3.094  1.00  0.00     0.062 A   
ATOM     7   C2  UNL     1      -3.896   2.031  -2.651  1.00  0.00    -0.027 A   
ATOM     8   C3  UNL     1      -4.763   2.572  -3.619  1.00  0.00     0.007 A   
ATOM     9   C4  UNL     1      -4.527   2.408  -4.984  1.00  0.00     0.023 A   
ATOM     10  C6  UNL     1      -2.547   1.155  -4.484  1.00  0.00     0.049 A   
ATOM     11  C5  UNL     1      -3.392   1.743  -5.429  1.00  0.00     0.025 A   
ATOM     12  C1  UNL     1      -4.277   2.245  -1.209  1.00  0.00     0.046 C   
BRANCH  11  13
ATOM     13  N1  UNL     1      -3.225   1.469  -6.790  1.00  0.00    -0.358 N   
ATOM     14  H6  UNL     1      -3.707   2.119  -7.407  1.00  0.00     0.143 HD  
ATOM     15  H7  UNL     1      -2.268   1.309  -7.087  1.00  0.00     0.143 HD  
ENDBRANCH  11  13
ENDBRANCH   1   6
BRANCH   3  16
ATOM     16  C10 UNL     1       0.914  -1.375  -0.898  1.00  0.00     0.117 C   
BRANCH  16  17
ATOM     17  N3  UNL     1       1.469  -0.993   0.449  1.00  0.00     0.249 N   
ATOM     18  H11 UNL     1       0.660  -0.808   1.063  1.00  0.00     0.199 HD  
ATOM     19  H12 UNL     1       1.990  -1.757   0.889  1.00  0.00     0.199 HD  
BRANCH  17  20
ATOM     20  C11 UNL     1       2.315   0.234   0.463  1.00  0.00     0.164 C   
BRANCH  20  21
ATOM     21  C12 UNL     1       2.720   0.576   1.869  1.00  0.00    -0.002 A   
ATOM     22  C13 UNL     1       3.963   0.140   2.385  1.00  0.00     0.012 A   
ATOM     23  C17 UNL     1       1.837   1.292   2.697  1.00  0.00     0.045 A   
ATOM     24  C14 UNL     1       4.328   0.422   3.706  1.00  0.00     0.037 A   
ATOM     25  C16 UNL     1       2.228   1.552   3.993  1.00  0.00     0.109 A   
ATOM     26  C15 UNL     1       3.439   1.130   4.484  1.00  0.00     0.108 A   
ATOM     27  O1  UNL     1       1.499   2.227   4.920  1.00  0.00    -0.316 OA  
ATOM     28  O2  UNL     1       3.625   1.488   5.782  1.00  0.00    -0.316 OA  
ATOM     29  C18 UNL     1       2.399   2.203   6.050  1.00  0.00     0.337 C   
ENDBRANCH  20  21
ENDBRANCH  17  20
ENDBRANCH  16  17
BRANCH  16  30
ATOM     30  C19 UNL     1       0.512  -2.874  -0.907  1.00  0.00     0.037 C   
ATOM     31  C20 UNL     1       1.739  -3.792  -0.839  1.00  0.00     0.014 C   
ATOM     32  C21 UNL     1      -0.484  -3.258   0.195  1.00  0.00     0.014 C   
ENDBRANCH  16  30
ENDBRANCH   3  16
TORSDOF 7
