REMARK SMILES CC(C)(C)[C@H]([NH2+]Cc1ccc2c(c1)OCO2)c1cn(-c2cncc(CCl)c2)nn1
REMARK SMILES IDX 17 1 18 2 19 3 28 4 29 5 5 6 2 7 1 8 3 9 4 10 6 11 7 14 8 15
REMARK SMILES IDX 9 16 13 17 10 18 12 19 11 20 14 21 16 22 15 23 20 24 21 25
REMARK SMILES IDX 27 26 22 27 24 28 23 29 25 30 26 31
REMARK H PARENT 6 12 6 13
ROOT
ATOM     1   C14 UNL     1      -0.331   0.907  -0.118  1.00  0.00     0.128 A   
ATOM     2   C15 UNL     1       0.918   0.354   0.060  1.00  0.00     0.135 A   
ATOM     3   N2  UNL     1       1.295   0.727   1.336  1.00  0.00    -0.179 N   
ATOM     4   N4  UNL     1       0.321   1.508   1.869  1.00  0.00    -0.071 NA  
ATOM     5   N5  UNL     1      -0.670   1.613   1.001  1.00  0.00    -0.131 NA  
ENDROOT
BRANCH   1   6
ATOM     6   C5  UNL     1      -1.337   0.747  -1.220  1.00  0.00     0.120 C   
BRANCH   6   7
ATOM     7   C2  UNL     1      -1.376   1.944  -2.232  1.00  0.00     0.010 C   
ATOM     8   C1  UNL     1       0.029   2.172  -2.836  1.00  0.00     0.017 C   
ATOM     9   C3  UNL     1      -2.323   1.613  -3.410  1.00  0.00     0.017 C   
ATOM     10  C4  UNL     1      -1.845   3.263  -1.586  1.00  0.00     0.017 C   
ENDBRANCH   6   7
BRANCH   6  11
ATOM     11  N1  UNL     1      -2.704   0.531  -0.592  1.00  0.00     0.250 N   
ATOM     12  H11 UNL     1      -2.686   1.035   0.309  1.00  0.00     0.199 HD  
ATOM     13  H12 UNL     1      -3.443   0.977  -1.139  1.00  0.00     0.199 HD  
BRANCH  11  14
ATOM     14  C6  UNL     1      -3.099  -0.886  -0.324  1.00  0.00     0.164 C   
BRANCH  14  15
ATOM     15  C7  UNL     1      -2.211  -1.589   0.663  1.00  0.00    -0.002 A   
ATOM     16  C8  UNL     1      -2.286  -1.276   2.042  1.00  0.00     0.012 A   
ATOM     17  C12 UNL     1      -1.255  -2.519   0.218  1.00  0.00     0.045 A   
ATOM     18  C9  UNL     1      -1.410  -1.862   2.962  1.00  0.00     0.037 A   
ATOM     19  C11 UNL     1      -0.402  -3.072   1.151  1.00  0.00     0.109 A   
ATOM     20  C10 UNL     1      -0.476  -2.752   2.484  1.00  0.00     0.108 A   
ATOM     21  O1  UNL     1       0.598  -3.952   0.883  1.00  0.00    -0.316 OA  
ATOM     22  O2  UNL     1       0.461  -3.398   3.225  1.00  0.00    -0.316 OA  
ATOM     23  C13 UNL     1       1.118  -4.190   2.213  1.00  0.00     0.337 C   
ENDBRANCH  14  15
ENDBRANCH  11  14
ENDBRANCH   6  11
ENDBRANCH   1   6
BRANCH   3  24
ATOM     24  C16 UNL     1       2.454   0.375   2.058  1.00  0.00     0.076 A   
ATOM     25  C17 UNL     1       2.614   0.818   3.364  1.00  0.00     0.136 A   
ATOM     26  C21 UNL     1       3.458  -0.427   1.507  1.00  0.00     0.034 A   
ATOM     27  N3  UNL     1       3.685   0.508   4.130  1.00  0.00    -0.262 NA  
ATOM     28  C19 UNL     1       4.577  -0.772   2.281  1.00  0.00    -0.013 A   
ATOM     29  C18 UNL     1       4.635  -0.278   3.579  1.00  0.00     0.116 A   
BRANCH  28  30
ATOM     30  C20 UNL     1       5.686  -1.624   1.738  1.00  0.00     0.146 C   
ATOM     31  CL1 UNL     1       5.089  -3.245   1.322  1.00  0.00    -0.122 Cl  
ENDBRANCH  28  30
ENDBRANCH   3  24
TORSDOF 7
