REMARK SMILES COc1cccc(C)c1CCn1cc([C@@H]([NH2+]Cc2ccc3c(c2)OCO3)C(C)C)nn1
REMARK SMILES IDX 12 1 13 2 14 3 30 4 31 5 11 7 10 8 9 9 3 10 4 11 5 12 7 13
REMARK SMILES IDX 6 14 8 15 2 16 1 17 15 18 16 19 17 22 18 23 19 24 23 25
REMARK SMILES IDX 20 26 22 27 21 28 24 29 26 30 25 31 27 32 28 33 29 34
REMARK H PARENT 13 6 16 20 16 21
ROOT
ATOM     1   N1  UNL     1       1.563  -2.485  -1.457  1.00  0.00    -0.212 N   
ATOM     2   C11 UNL     1       1.877  -1.276  -2.011  1.00  0.00     0.045 A   
ATOM     3   C12 UNL     1       2.162  -0.482  -0.925  1.00  0.00     0.127 A   
ATOM     4   N3  UNL     1       2.060  -1.230   0.221  1.00  0.00    -0.132 NA  
ATOM     5   N4  UNL     1       1.709  -2.458  -0.120  1.00  0.00    -0.076 NA  
ATOM     6   H14 UNL     1       1.797  -1.090  -3.074  1.00  0.00     0.083 HD  
ENDROOT
BRANCH   1   7
ATOM     7   C10 UNL     1       1.015  -3.647  -2.122  1.00  0.00     0.139 C   
BRANCH   7   8
ATOM     8   C9  UNL     1      -0.495  -3.804  -1.904  1.00  0.00     0.060 C   
BRANCH   8   9
ATOM     9   C8  UNL     1      -1.324  -2.567  -2.230  1.00  0.00    -0.013 A   
ATOM     10  C2  UNL     1      -1.404  -2.114  -3.567  1.00  0.00     0.078 A   
ATOM     11  C3  UNL     1      -2.143  -0.969  -3.882  1.00  0.00     0.034 A   
ATOM     12  C4  UNL     1      -2.834  -0.283  -2.886  1.00  0.00     0.003 A   
ATOM     13  C6  UNL     1      -2.036  -1.868  -1.223  1.00  0.00    -0.045 A   
ATOM     14  C5  UNL     1      -2.787  -0.733  -1.570  1.00  0.00     0.004 A   
ATOM     15  C7  UNL     1      -2.053  -2.318   0.215  1.00  0.00     0.045 C   
BRANCH  10  16
ATOM     16  O1  UNL     1      -0.696  -2.833  -4.496  1.00  0.00    -0.349 OA  
ATOM     17  C1  UNL     1      -1.168  -2.768  -5.840  1.00  0.00     0.203 C   
ENDBRANCH  10  16
ENDBRANCH   8   9
ENDBRANCH   7   8
ENDBRANCH   1   7
BRANCH   3  18
ATOM     18  C13 UNL     1       2.403   0.988  -0.825  1.00  0.00     0.117 C   
BRANCH  18  19
ATOM     19  N2  UNL     1       1.644   1.540   0.351  1.00  0.00     0.249 N   
ATOM     20  H16 UNL     1       1.981   2.465   0.633  1.00  0.00     0.199 HD  
ATOM     21  H17 UNL     1       1.832   0.907   1.143  1.00  0.00     0.199 HD  
BRANCH  19  22
ATOM     22  C14 UNL     1       0.165   1.587   0.170  1.00  0.00     0.164 C   
BRANCH  22  23
ATOM     23  C15 UNL     1      -0.511   2.018   1.440  1.00  0.00    -0.002 A   
ATOM     24  C16 UNL     1      -0.820   3.380   1.665  1.00  0.00     0.012 A   
ATOM     25  C20 UNL     1      -0.795   1.067   2.436  1.00  0.00     0.045 A   
ATOM     26  C17 UNL     1      -1.416   3.791   2.862  1.00  0.00     0.037 A   
ATOM     27  C19 UNL     1      -1.383   1.506   3.604  1.00  0.00     0.109 A   
ATOM     28  C18 UNL     1      -1.684   2.830   3.812  1.00  0.00     0.108 A   
ATOM     29  O2  UNL     1      -1.724   0.724   4.660  1.00  0.00    -0.316 OA  
ATOM     30  O3  UNL     1      -2.254   3.047   5.025  1.00  0.00    -0.316 OA  
ATOM     31  C21 UNL     1      -2.292   1.706   5.557  1.00  0.00     0.337 C   
ENDBRANCH  22  23
ENDBRANCH  19  22
ENDBRANCH  18  19
BRANCH  18  32
ATOM     32  C22 UNL     1       3.907   1.346  -0.726  1.00  0.00     0.037 C   
ATOM     33  C23 UNL     1       4.571   0.925   0.591  1.00  0.00     0.014 C   
ATOM     34  C24 UNL     1       4.144   2.842  -0.963  1.00  0.00     0.014 C   
ENDBRANCH  18  32
ENDBRANCH   3  18
TORSDOF 9
