REMARK SMILES COc1ncccc1Cn1cc([C@H](CC(C)C)[NH2+]Cc2ccc3c(c2)OCO3)nn1
REMARK SMILES IDX 10 1 11 2 12 3 29 4 30 5 9 7 8 8 3 9 4 10 5 11 7 12 6 13
REMARK SMILES IDX 2 14 1 15 13 16 14 17 15 18 16 19 17 20 18 21 19 24 20 25
REMARK SMILES IDX 21 26 25 27 22 28 24 29 23 30 26 31 28 32 27 33
REMARK H PARENT 11 6 18 22 18 23
ROOT
ATOM     1   N2  UNL     1       1.669   0.211   0.324  1.00  0.00    -0.208 N   
ATOM     2   C8  UNL     1       0.971   0.504  -0.816  1.00  0.00     0.046 A   
ATOM     3   C9  UNL     1       0.330   1.685  -0.519  1.00  0.00     0.127 A   
ATOM     4   N4  UNL     1       0.669   2.077   0.750  1.00  0.00    -0.132 NA  
ATOM     5   N5  UNL     1       1.493   1.171   1.253  1.00  0.00    -0.076 NA  
ATOM     6   H9  UNL     1       0.985  -0.140  -1.684  1.00  0.00     0.083 HD  
ENDROOT
BRANCH   1   7
ATOM     7   C7  UNL     1       2.543  -0.920   0.577  1.00  0.00     0.174 C   
BRANCH   7   8
ATOM     8   C6  UNL     1       1.772  -2.096   1.101  1.00  0.00     0.021 A   
ATOM     9   C2  UNL     1       1.129  -2.993   0.249  1.00  0.00     0.171 A   
ATOM     10  N1  UNL     1       0.398  -4.044   0.676  1.00  0.00    -0.233 NA  
ATOM     11  C3  UNL     1       0.319  -4.235   2.010  1.00  0.00     0.114 A   
ATOM     12  C5  UNL     1       1.655  -2.321   2.478  1.00  0.00     0.011 A   
ATOM     13  C4  UNL     1       0.926  -3.411   2.941  1.00  0.00     0.021 A   
BRANCH   9  14
ATOM     14  O1  UNL     1       1.232  -2.760  -1.110  1.00  0.00    -0.332 OA  
ATOM     15  C1  UNL     1       0.723  -3.836  -1.897  1.00  0.00     0.205 C   
ENDBRANCH   9  14
ENDBRANCH   7   8
ENDBRANCH   1   7
BRANCH   3  16
ATOM     16  C10 UNL     1      -0.633   2.503  -1.308  1.00  0.00     0.114 C   
BRANCH  16  17
ATOM     17  C11 UNL     1       0.039   3.725  -1.967  1.00  0.00     0.064 C   
BRANCH  17  18
ATOM     18  C12 UNL     1       1.133   3.397  -3.007  1.00  0.00    -0.012 C   
ATOM     19  C13 UNL     1       1.756   4.697  -3.527  1.00  0.00     0.007 C   
ATOM     20  C14 UNL     1       0.595   2.579  -4.181  1.00  0.00     0.007 C   
ENDBRANCH  17  18
ENDBRANCH  16  17
BRANCH  16  21
ATOM     21  N3  UNL     1      -1.724   3.036  -0.400  1.00  0.00     0.249 N   
ATOM     22  H20 UNL     1      -2.036   3.957  -0.720  1.00  0.00     0.199 HD  
ATOM     23  H21 UNL     1      -1.280   3.186   0.521  1.00  0.00     0.199 HD  
BRANCH  21  24
ATOM     24  C15 UNL     1      -2.916   2.161  -0.214  1.00  0.00     0.164 C   
BRANCH  24  25
ATOM     25  C16 UNL     1      -2.692   1.014   0.728  1.00  0.00    -0.002 A   
ATOM     26  C17 UNL     1      -2.533  -0.305   0.240  1.00  0.00     0.012 A   
ATOM     27  C21 UNL     1      -2.627   1.249   2.113  1.00  0.00     0.045 A   
ATOM     28  C18 UNL     1      -2.317  -1.375   1.116  1.00  0.00     0.037 A   
ATOM     29  C20 UNL     1      -2.416   0.172   2.948  1.00  0.00     0.109 A   
ATOM     30  C19 UNL     1      -2.268  -1.104   2.465  1.00  0.00     0.108 A   
ATOM     31  O2  UNL     1      -2.340   0.229   4.303  1.00  0.00    -0.316 OA  
ATOM     32  O3  UNL     1      -2.085  -2.014   3.458  1.00  0.00    -0.316 OA  
ATOM     33  C22 UNL     1      -2.129  -1.163   4.623  1.00  0.00     0.337 C   
ENDBRANCH  24  25
ENDBRANCH  21  24
ENDBRANCH  16  21
ENDBRANCH   3  16
TORSDOF 9
