REMARK SMILES CCOc1cc(Cn2cc([C@@H]([NH2+]Cc3ccc4c(c3)OCO4)C3CCCC3)nn2)ccc1O
REMARK SMILES IDX 8 1 9 2 10 3 28 4 29 5 7 7 6 8 4 9 5 10 32 11 31 12 30 13
REMARK SMILES IDX 3 14 2 15 1 16 33 17 11 19 12 20 13 23 14 24 15 25 19 26
REMARK SMILES IDX 16 27 18 28 17 29 20 30 22 31 21 32 23 33 24 34 27 35 25 36
REMARK SMILES IDX 26 37
REMARK H PARENT 9 6 33 18 12 21 12 22
ROOT
ATOM     1   N1  UNL     1       1.190   2.288  -0.899  1.00  0.00    -0.208 N   
ATOM     2   C7  UNL     1       1.992   1.178  -0.923  1.00  0.00     0.046 A   
ATOM     3   C8  UNL     1       1.119   0.142  -1.174  1.00  0.00     0.127 A   
ATOM     4   N3  UNL     1      -0.152   0.645  -1.292  1.00  0.00    -0.132 NA  
ATOM     5   N4  UNL     1      -0.095   1.955  -1.128  1.00  0.00    -0.076 NA  
ATOM     6   H9  UNL     1       3.056   1.230  -0.743  1.00  0.00     0.083 HD  
ENDROOT
BRANCH   1   7
ATOM     7   C6  UNL     1       1.565   3.665  -0.627  1.00  0.00     0.169 C   
BRANCH   7   8
ATOM     8   C5  UNL     1       1.572   3.925   0.860  1.00  0.00    -0.026 A   
ATOM     9   C3  UNL     1       0.359   4.428   2.911  1.00  0.00     0.105 A   
ATOM     10  C4  UNL     1       0.370   4.228   1.530  1.00  0.00     0.041 A   
ATOM     11  C25 UNL     1       1.560   4.308   3.617  1.00  0.00     0.102 A   
ATOM     12  C24 UNL     1       2.756   4.016   2.975  1.00  0.00     0.036 A   
ATOM     13  C23 UNL     1       2.765   3.826   1.595  1.00  0.00     0.008 A   
BRANCH   9  14
ATOM     14  O1  UNL     1      -0.739   4.718   3.677  1.00  0.00    -0.344 OA  
BRANCH  14  15
ATOM     15  C2  UNL     1      -1.923   5.109   2.981  1.00  0.00     0.164 C   
ATOM     16  C1  UNL     1      -2.954   5.534   4.010  1.00  0.00     0.035 C   
ENDBRANCH  14  15
ENDBRANCH   9  14
BRANCH  11  17
ATOM     17  O4  UNL     1       1.584   4.482   4.973  1.00  0.00    -0.358 OA  
ATOM     18  H31 UNL     1       0.667   4.717   5.221  1.00  0.00     0.218 HD  
ENDBRANCH  11  17
ENDBRANCH   7   8
ENDBRANCH   1   7
BRANCH   3  19
ATOM     19  C9  UNL     1       1.329  -1.337  -1.234  1.00  0.00     0.117 C   
BRANCH  19  20
ATOM     20  N2  UNL     1       0.128  -2.038  -0.646  1.00  0.00     0.249 N   
ATOM     21  H11 UNL     1       0.077  -3.018  -0.943  1.00  0.00     0.199 HD  
ATOM     22  H12 UNL     1      -0.707  -1.573  -1.036  1.00  0.00     0.199 HD  
BRANCH  20  23
ATOM     23  C10 UNL     1       0.021  -1.969   0.838  1.00  0.00     0.164 C   
BRANCH  23  24
ATOM     24  C11 UNL     1      -1.264  -2.591   1.304  1.00  0.00    -0.002 A   
ATOM     25  C12 UNL     1      -2.444  -1.813   1.381  1.00  0.00     0.012 A   
ATOM     26  C16 UNL     1      -1.315  -3.960   1.617  1.00  0.00     0.045 A   
ATOM     27  C13 UNL     1      -3.657  -2.385   1.780  1.00  0.00     0.037 A   
ATOM     28  C15 UNL     1      -2.527  -4.492   2.006  1.00  0.00     0.109 A   
ATOM     29  C14 UNL     1      -3.665  -3.728   2.087  1.00  0.00     0.108 A   
ATOM     30  O2  UNL     1      -2.746  -5.790   2.344  1.00  0.00    -0.316 OA  
ATOM     31  O3  UNL     1      -4.745  -4.447   2.489  1.00  0.00    -0.316 OA  
ATOM     32  C17 UNL     1      -4.153  -5.752   2.675  1.00  0.00     0.337 C   
ENDBRANCH  23  24
ENDBRANCH  20  23
ENDBRANCH  19  20
BRANCH  19  33
ATOM     33  C18 UNL     1       1.562  -1.904  -2.646  1.00  0.00     0.043 C   
ATOM     34  C19 UNL     1       0.458  -1.659  -3.676  1.00  0.00     0.010 C   
ATOM     35  C22 UNL     1       2.796  -1.355  -3.365  1.00  0.00     0.010 C   
ATOM     36  C20 UNL     1       1.115  -2.004  -5.011  1.00  0.00     0.001 C   
ATOM     37  C21 UNL     1       2.621  -1.833  -4.803  1.00  0.00     0.001 C   
ENDBRANCH  19  33
ENDBRANCH   3  19
TORSDOF 10
