REMARK SMILES Cc1cc(F)ccc1CCn1cc([C@@H]([NH2+]Cc2ccc3c(c2)OCO3)C2CCCC2)nn1
REMARK SMILES IDX 11 1 12 2 13 3 31 4 32 5 10 7 9 8 8 9 2 10 3 11 4 12 7 13
REMARK SMILES IDX 6 14 1 15 5 16 14 17 15 18 16 21 17 22 18 23 22 24 19 25
REMARK SMILES IDX 21 26 20 27 23 28 25 29 24 30 26 31 27 32 30 33 28 34 29 35
REMARK H PARENT 12 6 15 19 15 20
ROOT
ATOM     1   N1  UNL     1      -2.926   0.063   0.909  1.00  0.00    -0.212 N   
ATOM     2   C10 UNL     1      -1.901  -0.754   1.292  1.00  0.00     0.045 A   
ATOM     3   C11 UNL     1      -1.217  -1.000   0.121  1.00  0.00     0.127 A   
ATOM     4   N3  UNL     1      -1.862  -0.373  -0.915  1.00  0.00    -0.132 NA  
ATOM     5   N4  UNL     1      -2.916   0.257  -0.424  1.00  0.00    -0.076 NA  
ATOM     6   H11 UNL     1      -1.739  -1.038   2.325  1.00  0.00     0.083 HD  
ENDROOT
BRANCH   1   7
ATOM     7   C9  UNL     1      -3.924   0.698   1.745  1.00  0.00     0.139 C   
BRANCH   7   8
ATOM     8   C8  UNL     1      -3.713   2.206   1.897  1.00  0.00     0.057 C   
BRANCH   8   9
ATOM     9   C7  UNL     1      -2.393   2.559   2.558  1.00  0.00    -0.043 A   
ATOM     10  C2  UNL     1      -2.202   2.509   3.957  1.00  0.00    -0.045 A   
ATOM     11  C3  UNL     1      -0.927   2.787   4.479  1.00  0.00     0.043 A   
ATOM     12  C4  UNL     1       0.122   3.133   3.637  1.00  0.00     0.123 A   
ATOM     13  C6  UNL     1      -1.313   2.925   1.728  1.00  0.00     0.007 A   
ATOM     14  C5  UNL     1      -0.061   3.214   2.266  1.00  0.00     0.039 A   
ATOM     15  C1  UNL     1      -3.302   2.146   4.917  1.00  0.00     0.045 C   
ATOM     16  F1  UNL     1       1.329   3.390   4.157  1.00  0.00    -0.207 F   
ENDBRANCH   8   9
ENDBRANCH   7   8
ENDBRANCH   1   7
BRANCH   3  17
ATOM     17  C12 UNL     1       0.030  -1.782  -0.145  1.00  0.00     0.117 C   
BRANCH  17  18
ATOM     18  N2  UNL     1       0.212  -1.983  -1.625  1.00  0.00     0.249 N   
ATOM     19  H13 UNL     1      -0.125  -1.117  -2.077  1.00  0.00     0.199 HD  
ATOM     20  H14 UNL     1       1.196  -2.074  -1.892  1.00  0.00     0.199 HD  
BRANCH  18  21
ATOM     21  C13 UNL     1      -0.566  -3.104  -2.218  1.00  0.00     0.164 C   
BRANCH  21  22
ATOM     22  C14 UNL     1      -0.395  -3.126  -3.711  1.00  0.00    -0.002 A   
ATOM     23  C15 UNL     1       0.645  -3.880  -4.304  1.00  0.00     0.012 A   
ATOM     24  C19 UNL     1      -1.232  -2.341  -4.524  1.00  0.00     0.045 A   
ATOM     25  C16 UNL     1       0.849  -3.856  -5.687  1.00  0.00     0.037 A   
ATOM     26  C18 UNL     1      -1.002  -2.338  -5.883  1.00  0.00     0.109 A   
ATOM     27  C17 UNL     1       0.011  -3.072  -6.448  1.00  0.00     0.108 A   
ATOM     28  O1  UNL     1      -1.708  -1.633  -6.801  1.00  0.00    -0.316 OA  
ATOM     29  O2  UNL     1       0.070  -2.920  -7.793  1.00  0.00    -0.316 OA  
ATOM     30  C20 UNL     1      -1.016  -1.996  -8.018  1.00  0.00     0.337 C   
ENDBRANCH  21  22
ENDBRANCH  18  21
ENDBRANCH  17  18
BRANCH  17  31
ATOM     31  C21 UNL     1       1.269  -1.098   0.467  1.00  0.00     0.043 C   
ATOM     32  C22 UNL     1       2.543  -1.948   0.450  1.00  0.00     0.010 C   
ATOM     33  C25 UNL     1       1.711   0.221  -0.182  1.00  0.00     0.010 C   
ATOM     34  C23 UNL     1       3.615  -0.936   0.829  1.00  0.00     0.001 C   
ATOM     35  C24 UNL     1       3.210   0.344   0.107  1.00  0.00     0.001 C   
ENDBRANCH  17  31
ENDBRANCH   3  17
TORSDOF 8
