REMARK SMILES CC(C)[C@H]([NH2+]Cc1ccc2c(c1)OCO2)c1cn([C@@H](CO)c2cccc(F)c2)nn1
REMARK SMILES IDX 16 1 17 2 18 3 29 4 30 5 4 7 2 8 1 9 3 10 5 11 6 14 7 15
REMARK SMILES IDX 8 16 12 17 9 18 11 19 10 20 13 21 15 22 14 23 19 24 20 25
REMARK SMILES IDX 21 26 22 28 23 29 28 30 24 31 26 32 25 33 27 34
REMARK H PARENT 17 6 5 12 5 13 21 27
ROOT
ATOM     1   C13 UNL     1       1.216  -0.653  -0.254  1.00  0.00     0.127 A   
ATOM     2   C14 UNL     1       0.745  -0.598   1.037  1.00  0.00     0.046 A   
ATOM     3   N2  UNL     1       1.625  -1.369   1.750  1.00  0.00    -0.202 N   
ATOM     4   N3  UNL     1       2.603  -1.837   0.945  1.00  0.00    -0.075 NA  
ATOM     5   N4  UNL     1       2.355  -1.416  -0.285  1.00  0.00    -0.132 NA  
ATOM     6   H18 UNL     1      -0.092  -0.097   1.503  1.00  0.00     0.083 HD  
ENDROOT
BRANCH   1   7
ATOM     7   C4  UNL     1       0.735   0.021  -1.497  1.00  0.00     0.117 C   
BRANCH   7   8
ATOM     8   C2  UNL     1      -0.019  -0.958  -2.443  1.00  0.00     0.037 C   
ATOM     9   C1  UNL     1      -0.497  -0.282  -3.736  1.00  0.00     0.014 C   
ATOM     10  C3  UNL     1      -1.241  -1.579  -1.747  1.00  0.00     0.014 C   
ENDBRANCH   7   8
BRANCH   7  11
ATOM     11  N1  UNL     1       1.922   0.609  -2.236  1.00  0.00     0.249 N   
ATOM     12  H9  UNL     1       2.570  -0.172  -2.406  1.00  0.00     0.199 HD  
ATOM     13  H10 UNL     1       1.635   0.978  -3.144  1.00  0.00     0.199 HD  
BRANCH  11  14
ATOM     14  C5  UNL     1       2.688   1.677  -1.522  1.00  0.00     0.164 C   
BRANCH  14  15
ATOM     15  C6  UNL     1       1.885   2.929  -1.304  1.00  0.00    -0.002 A   
ATOM     16  C7  UNL     1       1.610   3.802  -2.384  1.00  0.00     0.012 A   
ATOM     17  C11 UNL     1       1.375   3.225  -0.028  1.00  0.00     0.045 A   
ATOM     18  C8  UNL     1       0.832   4.950  -2.199  1.00  0.00     0.037 A   
ATOM     19  C10 UNL     1       0.610   4.363   0.119  1.00  0.00     0.109 A   
ATOM     20  C9  UNL     1       0.344   5.201  -0.935  1.00  0.00     0.108 A   
ATOM     21  O1  UNL     1       0.037   4.787   1.276  1.00  0.00    -0.316 OA  
ATOM     22  O2  UNL     1      -0.428   6.258  -0.575  1.00  0.00    -0.316 OA  
ATOM     23  C12 UNL     1      -0.612   6.001   0.834  1.00  0.00     0.337 C   
ENDBRANCH  14  15
ENDBRANCH  11  14
ENDBRANCH   7  11
ENDBRANCH   1   7
BRANCH   3  24
ATOM     24  C15 UNL     1       1.637  -1.672   3.181  1.00  0.00     0.155 C   
BRANCH  24  25
ATOM     25  C16 UNL     1       2.235  -0.505   3.995  1.00  0.00     0.185 C   
BRANCH  25  26
ATOM     26  O3  UNL     1       1.576   0.742   3.756  1.00  0.00    -0.394 OA  
ATOM     27  H22 UNL     1       1.923   1.378   4.410  1.00  0.00     0.210 HD  
ENDBRANCH  25  26
ENDBRANCH  24  25
BRANCH  24  28
ATOM     28  C17 UNL     1       0.281  -2.202   3.635  1.00  0.00    -0.020 A   
ATOM     29  C18 UNL     1      -0.015  -3.569   3.454  1.00  0.00     0.006 A   
ATOM     30  C22 UNL     1      -0.708  -1.383   4.202  1.00  0.00     0.045 A   
ATOM     31  C19 UNL     1      -1.251  -4.098   3.839  1.00  0.00     0.003 A   
ATOM     32  C21 UNL     1      -1.938  -1.921   4.576  1.00  0.00     0.123 A   
ATOM     33  C20 UNL     1      -2.217  -3.269   4.402  1.00  0.00     0.039 A   
ATOM     34  F1  UNL     1      -2.871  -1.116   5.103  1.00  0.00    -0.207 F   
ENDBRANCH  24  28
ENDBRANCH   3  24
TORSDOF 9
