REMARK SMILES CC(C)[C@H]([NH2+]Cc1ccc2c(c1)OCO2)c1cn([C@H](CO)c2cccc(F)c2)nn1
REMARK SMILES IDX 16 1 17 2 18 3 29 4 30 5 4 7 2 8 1 9 3 10 5 11 6 14 7 15
REMARK SMILES IDX 8 16 12 17 9 18 11 19 10 20 13 21 15 22 14 23 19 24 20 25
REMARK SMILES IDX 21 26 22 28 23 29 28 30 24 31 26 32 25 33 27 34
REMARK H PARENT 17 6 5 12 5 13 21 27
ROOT
ATOM     1   C13 UNL     1       0.378   1.363   0.774  1.00  0.00     0.127 A   
ATOM     2   C14 UNL     1      -0.330   2.538   0.677  1.00  0.00     0.046 A   
ATOM     3   N2  UNL     1      -0.244   2.880  -0.645  1.00  0.00    -0.202 N   
ATOM     4   N3  UNL     1       0.464   1.950  -1.323  1.00  0.00    -0.075 NA  
ATOM     5   N4  UNL     1       0.858   1.026  -0.463  1.00  0.00    -0.132 NA  
ATOM     6   H18 UNL     1      -0.883   3.133   1.393  1.00  0.00     0.083 HD  
ENDROOT
BRANCH   1   7
ATOM     7   C4  UNL     1       0.606   0.444   1.930  1.00  0.00     0.117 C   
BRANCH   7   8
ATOM     8   C2  UNL     1       1.873   0.820   2.740  1.00  0.00     0.037 C   
ATOM     9   C1  UNL     1       3.191   0.565   1.998  1.00  0.00     0.014 C   
ATOM     10  C3  UNL     1       1.903   0.112   4.100  1.00  0.00     0.014 C   
ENDBRANCH   7   8
BRANCH   7  11
ATOM     11  N1  UNL     1       0.693  -0.978   1.445  1.00  0.00     0.249 N   
ATOM     12  H9  UNL     1       1.286  -0.965   0.602  1.00  0.00     0.199 HD  
ATOM     13  H10 UNL     1       1.161  -1.593   2.118  1.00  0.00     0.199 HD  
BRANCH  11  14
ATOM     14  C5  UNL     1      -0.609  -1.590   1.051  1.00  0.00     0.164 C   
BRANCH  14  15
ATOM     15  C6  UNL     1      -0.393  -2.971   0.497  1.00  0.00    -0.002 A   
ATOM     16  C7  UNL     1       0.013  -3.140  -0.849  1.00  0.00     0.012 A   
ATOM     17  C11 UNL     1      -0.545  -4.098   1.322  1.00  0.00     0.045 A   
ATOM     18  C8  UNL     1       0.256  -4.416  -1.371  1.00  0.00     0.037 A   
ATOM     19  C10 UNL     1      -0.302  -5.341   0.774  1.00  0.00     0.109 A   
ATOM     20  C9  UNL     1       0.088  -5.496  -0.534  1.00  0.00     0.108 A   
ATOM     21  O1  UNL     1      -0.410  -6.527   1.427  1.00  0.00    -0.316 OA  
ATOM     22  O2  UNL     1       0.278  -6.800  -0.868  1.00  0.00    -0.316 OA  
ATOM     23  C12 UNL     1      -0.066  -7.455   0.372  1.00  0.00     0.337 C   
ENDBRANCH  14  15
ENDBRANCH  11  14
ENDBRANCH   7  11
ENDBRANCH   1   7
BRANCH   3  24
ATOM     24  C15 UNL     1      -0.868   3.989  -1.365  1.00  0.00     0.155 C   
BRANCH  24  25
ATOM     25  C16 UNL     1      -0.539   5.379  -0.773  1.00  0.00     0.185 C   
BRANCH  25  26
ATOM     26  O3  UNL     1      -0.946   5.536   0.585  1.00  0.00    -0.394 OA  
ATOM     27  H22 UNL     1      -0.847   6.482   0.808  1.00  0.00     0.210 HD  
ENDBRANCH  25  26
ENDBRANCH  24  25
BRANCH  24  28
ATOM     28  C17 UNL     1      -2.345   3.692  -1.599  1.00  0.00    -0.020 A   
ATOM     29  C18 UNL     1      -2.743   3.108  -2.818  1.00  0.00     0.006 A   
ATOM     30  C22 UNL     1      -3.331   3.935  -0.629  1.00  0.00     0.045 A   
ATOM     31  C19 UNL     1      -4.084   2.791  -3.063  1.00  0.00     0.003 A   
ATOM     32  C21 UNL     1      -4.664   3.611  -0.883  1.00  0.00     0.123 A   
ATOM     33  C20 UNL     1      -5.050   3.043  -2.089  1.00  0.00     0.039 A   
ATOM     34  F1  UNL     1      -5.588   3.843   0.061  1.00  0.00    -0.207 F   
ENDBRANCH  24  28
ENDBRANCH   3  24
TORSDOF 9
