REMARK SMILES Cc1cc(O)c(CCn2cc([C@H](CC(C)C)[NH2+]Cc3ccc4c(c3)OCO4)nn2)cc1C
REMARK SMILES IDX 9 1 10 2 11 3 28 4 29 5 8 7 7 8 6 9 2 10 3 11 31 12 4 13
REMARK SMILES IDX 30 14 1 15 32 16 5 17 12 19 13 20 14 21 15 22 16 23 17 24
REMARK SMILES IDX 18 27 19 28 20 29 24 30 21 31 23 32 22 33 25 34 27 35 26 36
REMARK H PARENT 10 6 5 18 17 25 17 26
ROOT
ATOM     1   N1  UNL     1       1.305   3.086  -2.413  1.00  0.00    -0.212 N   
ATOM     2   C8  UNL     1       0.655   1.906  -2.643  1.00  0.00     0.045 A   
ATOM     3   C9  UNL     1       1.665   0.967  -2.604  1.00  0.00     0.127 A   
ATOM     4   N3  UNL     1       2.868   1.605  -2.459  1.00  0.00    -0.132 NA  
ATOM     5   N4  UNL     1       2.636   2.902  -2.347  1.00  0.00    -0.076 NA  
ATOM     6   H10 UNL     1      -0.424   1.838  -2.670  1.00  0.00     0.083 HD  
ENDROOT
BRANCH   1   7
ATOM     7   C7  UNL     1       0.730   4.324  -1.930  1.00  0.00     0.139 C   
BRANCH   7   8
ATOM     8   C6  UNL     1       0.923   4.487  -0.416  1.00  0.00     0.059 C   
BRANCH   8   9
ATOM     9   C5  UNL     1       0.146   3.482   0.411  1.00  0.00    -0.016 A   
ATOM     10  C2  UNL     1      -1.443   1.724   1.976  1.00  0.00    -0.046 A   
ATOM     11  C3  UNL     1      -0.142   1.374   1.591  1.00  0.00     0.037 A   
ATOM     12  C24 UNL     1      -1.969   2.957   1.554  1.00  0.00    -0.048 A   
ATOM     13  C4  UNL     1       0.635   2.232   0.809  1.00  0.00     0.075 A   
ATOM     14  C23 UNL     1      -1.167   3.822   0.789  1.00  0.00     0.010 A   
ATOM     15  C1  UNL     1      -2.244   0.773   2.824  1.00  0.00     0.045 C   
ATOM     16  C25 UNL     1      -3.360   3.391   1.939  1.00  0.00     0.044 C   
BRANCH  13  17
ATOM     17  O1  UNL     1       1.860   1.734   0.448  1.00  0.00    -0.361 OA  
ATOM     18  H5  UNL     1       2.400   2.454   0.066  1.00  0.00     0.218 HD  
ENDBRANCH  13  17
ENDBRANCH   8   9
ENDBRANCH   7   8
ENDBRANCH   1   7
BRANCH   3  19
ATOM     19  C10 UNL     1       1.614  -0.516  -2.449  1.00  0.00     0.114 C   
BRANCH  19  20
ATOM     20  C11 UNL     1       0.508  -1.209  -3.260  1.00  0.00     0.064 C   
BRANCH  20  21
ATOM     21  C12 UNL     1       0.646  -1.064  -4.792  1.00  0.00    -0.012 C   
ATOM     22  C13 UNL     1       1.941  -1.683  -5.320  1.00  0.00     0.007 C   
ATOM     23  C14 UNL     1      -0.556  -1.716  -5.482  1.00  0.00     0.007 C   
ENDBRANCH  20  21
ENDBRANCH  19  20
BRANCH  19  24
ATOM     24  N2  UNL     1       1.394  -0.801  -0.981  1.00  0.00     0.249 N   
ATOM     25  H21 UNL     1       0.402  -0.702  -0.739  1.00  0.00     0.199 HD  
ATOM     26  H22 UNL     1       1.842  -0.032  -0.444  1.00  0.00     0.199 HD  
BRANCH  24  27
ATOM     27  C15 UNL     1       1.941  -2.080  -0.470  1.00  0.00     0.164 C   
BRANCH  27  28
ATOM     28  C16 UNL     1       1.672  -2.224   1.001  1.00  0.00    -0.002 A   
ATOM     29  C17 UNL     1       0.516  -2.903   1.456  1.00  0.00     0.012 A   
ATOM     30  C21 UNL     1       2.538  -1.630   1.935  1.00  0.00     0.045 A   
ATOM     31  C18 UNL     1       0.232  -2.999   2.823  1.00  0.00     0.037 A   
ATOM     32  C20 UNL     1       2.225  -1.740   3.274  1.00  0.00     0.109 A   
ATOM     33  C19 UNL     1       1.105  -2.405   3.707  1.00  0.00     0.108 A   
ATOM     34  O2  UNL     1       2.949  -1.218   4.299  1.00  0.00    -0.316 OA  
ATOM     35  O3  UNL     1       0.984  -2.389   5.060  1.00  0.00    -0.316 OA  
ATOM     36  C22 UNL     1       2.159  -1.637   5.434  1.00  0.00     0.337 C   
ENDBRANCH  27  28
ENDBRANCH  24  27
ENDBRANCH  19  24
ENDBRANCH   3  19
TORSDOF 10
