REMARK SMILES COc1cccc(-n2cc([C@@H]([NH2+]Cc3ccc4c(c3)OCO4)C3CCCC3)nn2)c1C
REMARK SMILES IDX 8 1 9 2 10 3 28 4 29 5 7 6 3 7 4 8 30 9 5 10 6 11 31 12 2 13
REMARK SMILES IDX 1 14 11 15 12 16 13 19 14 20 15 21 19 22 16 23 18 24 17 25
REMARK SMILES IDX 20 26 22 27 21 28 23 29 24 30 27 31 25 32 26 33
REMARK H PARENT 12 17 12 18
ROOT
ATOM     1   N1  UNL     1      -0.907  -2.792  -0.805  1.00  0.00    -0.180 N   
ATOM     2   C7  UNL     1      -0.209  -2.157  -1.825  1.00  0.00     0.135 A   
ATOM     3   C8  UNL     1       0.111  -0.911  -1.335  1.00  0.00     0.127 A   
ATOM     4   N3  UNL     1      -0.389  -0.790  -0.074  1.00  0.00    -0.131 NA  
ATOM     5   N4  UNL     1      -1.012  -1.915   0.226  1.00  0.00    -0.071 NA  
ENDROOT
BRANCH   1   6
ATOM     6   C6  UNL     1      -1.447  -4.116  -0.782  1.00  0.00     0.063 A   
ATOM     7   C2  UNL     1      -2.679  -5.967   0.247  1.00  0.00     0.079 A   
ATOM     8   C3  UNL     1      -2.438  -6.752  -0.883  1.00  0.00     0.034 A   
ATOM     9   C23 UNL     1      -2.191  -4.635   0.317  1.00  0.00     0.003 A   
ATOM     10  C4  UNL     1      -1.713  -6.241  -1.952  1.00  0.00     0.005 A   
ATOM     11  C5  UNL     1      -1.221  -4.939  -1.904  1.00  0.00     0.026 A   
ATOM     12  C24 UNL     1      -2.487  -3.829   1.564  1.00  0.00     0.049 C   
BRANCH   7  13
ATOM     13  O1  UNL     1      -3.389  -6.412   1.335  1.00  0.00    -0.349 OA  
ATOM     14  C1  UNL     1      -3.818  -7.768   1.349  1.00  0.00     0.203 C   
ENDBRANCH   7  13
ENDBRANCH   1   6
BRANCH   3  15
ATOM     15  C9  UNL     1       0.845   0.238  -1.950  1.00  0.00     0.117 C   
BRANCH  15  16
ATOM     16  N2  UNL     1       0.489   1.522  -1.247  1.00  0.00     0.249 N   
ATOM     17  H9  UNL     1       1.218   2.236  -1.342  1.00  0.00     0.199 HD  
ATOM     18  H10 UNL     1       0.437   1.308  -0.238  1.00  0.00     0.199 HD  
BRANCH  16  19
ATOM     19  C10 UNL     1      -0.824   2.114  -1.629  1.00  0.00     0.164 C   
BRANCH  19  20
ATOM     20  C11 UNL     1      -1.077   3.373  -0.851  1.00  0.00    -0.002 A   
ATOM     21  C12 UNL     1      -0.709   4.631  -1.385  1.00  0.00     0.012 A   
ATOM     22  C16 UNL     1      -1.630   3.302   0.440  1.00  0.00     0.045 A   
ATOM     23  C13 UNL     1      -0.901   5.806  -0.650  1.00  0.00     0.037 A   
ATOM     24  C15 UNL     1      -1.806   4.479   1.136  1.00  0.00     0.109 A   
ATOM     25  C14 UNL     1      -1.453   5.696   0.608  1.00  0.00     0.108 A   
ATOM     26  O2  UNL     1      -2.328   4.588   2.386  1.00  0.00    -0.316 OA  
ATOM     27  O3  UNL     1      -1.706   6.725   1.458  1.00  0.00    -0.316 OA  
ATOM     28  C17 UNL     1      -2.280   6.020   2.579  1.00  0.00     0.337 C   
ENDBRANCH  19  20
ENDBRANCH  16  19
ENDBRANCH  15  16
BRANCH  15  29
ATOM     29  C18 UNL     1       2.373   0.021  -1.928  1.00  0.00     0.043 C   
ATOM     30  C19 UNL     1       3.152   1.025  -2.795  1.00  0.00     0.010 C   
ATOM     31  C22 UNL     1       3.043   0.070  -0.539  1.00  0.00     0.010 C   
ATOM     32  C20 UNL     1       4.517   1.105  -2.132  1.00  0.00     0.001 C   
ATOM     33  C21 UNL     1       4.174   1.085  -0.653  1.00  0.00     0.001 C   
ENDBRANCH  15  29
ENDBRANCH   3  15
TORSDOF 7
