REMARK SMILES C/C(=C/c1ccco1)[C@@H](CO)n1cc([C@H](CC(C)C)[NH2+]Cc2ccc3c(c2)OCO3)nn1
REMARK SMILES IDX 12 1 13 2 14 3 31 4 32 5 9 7 2 8 1 9 3 10 4 11 5 12 8 13
REMARK SMILES IDX 6 14 7 15 10 16 11 17 15 19 16 20 17 21 18 22 19 23 20 24
REMARK SMILES IDX 21 27 22 28 23 29 27 30 24 31 26 32 25 33 28 34 30 35 29 36
REMARK H PARENT 13 6 11 18 20 25 20 26
ROOT
ATOM     1   N1  UNL     1       0.294   0.278   3.217  1.00  0.00    -0.203 N   
ATOM     2   C10 UNL     1       0.012   0.024   1.901  1.00  0.00     0.046 A   
ATOM     3   C11 UNL     1       0.446   1.149   1.240  1.00  0.00     0.127 A   
ATOM     4   N3  UNL     1       0.957   2.039   2.148  1.00  0.00    -0.132 NA  
ATOM     5   N4  UNL     1       0.849   1.504   3.353  1.00  0.00    -0.075 NA  
ATOM     6   H12 UNL     1      -0.452  -0.898   1.579  1.00  0.00     0.083 HD  
ENDROOT
BRANCH   1   7
ATOM     7   C8  UNL     1       0.025  -0.583   4.374  1.00  0.00     0.151 C   
BRANCH   7   8
ATOM     8   C2  UNL     1       1.318  -1.180   4.940  1.00  0.00    -0.046 C   
ATOM     9   C1  UNL     1       2.131  -0.271   5.838  1.00  0.00     0.042 C   
BRANCH   8  10
ATOM     10  C3  UNL     1       1.768  -2.436   4.734  1.00  0.00     0.035 C   
BRANCH  10  11
ATOM     11  C4  UNL     1       1.156  -3.418   3.905  1.00  0.00     0.081 A   
ATOM     12  C5  UNL     1       1.324  -4.800   3.957  1.00  0.00     0.036 A   
ATOM     13  O1  UNL     1       0.302  -3.155   2.855  1.00  0.00    -0.318 OA  
ATOM     14  C6  UNL     1       0.533  -5.380   2.939  1.00  0.00     0.028 A   
ATOM     15  C7  UNL     1      -0.073  -4.332   2.297  1.00  0.00     0.136 A   
ENDBRANCH  10  11
ENDBRANCH   8  10
ENDBRANCH   7   8
BRANCH   7  16
ATOM     16  C9  UNL     1      -0.846   0.147   5.418  1.00  0.00     0.185 C   
BRANCH  16  17
ATOM     17  O2  UNL     1      -2.163   0.364   4.904  1.00  0.00    -0.394 OA  
ATOM     18  H11 UNL     1      -2.697   0.729   5.633  1.00  0.00     0.210 HD  
ENDBRANCH  16  17
ENDBRANCH   7  16
ENDBRANCH   1   7
BRANCH   3  19
ATOM     19  C12 UNL     1       0.395   1.514  -0.206  1.00  0.00     0.114 C   
BRANCH  19  20
ATOM     20  C13 UNL     1       1.733   1.177  -0.898  1.00  0.00     0.064 C   
BRANCH  20  21
ATOM     21  C14 UNL     1       1.808   1.440  -2.417  1.00  0.00    -0.012 C   
ATOM     22  C15 UNL     1       3.193   1.040  -2.937  1.00  0.00     0.007 C   
ATOM     23  C16 UNL     1       0.729   0.688  -3.197  1.00  0.00     0.007 C   
ENDBRANCH  20  21
ENDBRANCH  19  20
BRANCH  19  24
ATOM     24  N2  UNL     1       0.117   2.991  -0.362  1.00  0.00     0.249 N   
ATOM     25  H23 UNL     1       0.815   3.475   0.220  1.00  0.00     0.199 HD  
ATOM     26  H24 UNL     1       0.262   3.288  -1.328  1.00  0.00     0.199 HD  
BRANCH  24  27
ATOM     27  C17 UNL     1      -1.232   3.457   0.085  1.00  0.00     0.164 C   
BRANCH  27  28
ATOM     28  C18 UNL     1      -2.352   2.886  -0.740  1.00  0.00    -0.002 A   
ATOM     29  C19 UNL     1      -2.519   3.275  -2.091  1.00  0.00     0.012 A   
ATOM     30  C23 UNL     1      -3.225   1.938  -0.180  1.00  0.00     0.045 A   
ATOM     31  C20 UNL     1      -3.532   2.717  -2.879  1.00  0.00     0.037 A   
ATOM     32  C22 UNL     1      -4.216   1.412  -0.983  1.00  0.00     0.109 A   
ATOM     33  C21 UNL     1      -4.363   1.787  -2.294  1.00  0.00     0.108 A   
ATOM     34  O3  UNL     1      -5.136   0.485  -0.602  1.00  0.00    -0.316 OA  
ATOM     35  O4  UNL     1      -5.393   1.145  -2.905  1.00  0.00    -0.316 OA  
ATOM     36  C24 UNL     1      -5.907   0.348  -1.817  1.00  0.00     0.337 C   
ENDBRANCH  27  28
ENDBRANCH  24  27
ENDBRANCH  19  24
ENDBRANCH   3  19
TORSDOF 12
