REMARK SMILES C/C(=C\c1ccco1)[C@H](CO)n1cc([C@H](CC(C)C)[NH2+]Cc2ccc3c(c2)OCO3)nn1
REMARK SMILES IDX 12 1 13 2 14 3 31 4 32 5 9 7 2 8 1 9 3 10 4 11 5 12 8 13
REMARK SMILES IDX 6 14 7 15 10 16 11 17 15 19 16 20 17 21 18 22 19 23 20 24
REMARK SMILES IDX 21 27 22 28 23 29 27 30 24 31 26 32 25 33 28 34 30 35 29 36
REMARK H PARENT 13 6 11 18 20 25 20 26
ROOT
ATOM     1   N1  UNL     1      -1.638   0.903  -0.926  1.00  0.00    -0.203 N   
ATOM     2   C10 UNL     1      -0.770   0.307  -1.805  1.00  0.00     0.046 A   
ATOM     3   C11 UNL     1      -0.908  -1.039  -1.551  1.00  0.00     0.127 A   
ATOM     4   N3  UNL     1      -1.816  -1.215  -0.540  1.00  0.00    -0.132 NA  
ATOM     5   N4  UNL     1      -2.255  -0.025  -0.167  1.00  0.00    -0.075 NA  
ATOM     6   H12 UNL     1      -0.154   0.881  -2.483  1.00  0.00     0.083 HD  
ENDROOT
BRANCH   1   7
ATOM     7   C8  UNL     1      -1.868   2.338  -0.738  1.00  0.00     0.151 C   
BRANCH   7   8
ATOM     8   C2  UNL     1      -0.800   2.932   0.194  1.00  0.00    -0.046 C   
ATOM     9   C1  UNL     1      -0.943   2.605   1.661  1.00  0.00     0.042 C   
BRANCH   8  10
ATOM     10  C3  UNL     1       0.200   3.669  -0.338  1.00  0.00     0.035 C   
BRANCH  10  11
ATOM     11  C4  UNL     1       1.252   4.269   0.405  1.00  0.00     0.081 A   
ATOM     12  C5  UNL     1       1.224   5.075   1.539  1.00  0.00     0.036 A   
ATOM     13  O1  UNL     1       2.568   4.149   0.019  1.00  0.00    -0.318 OA  
ATOM     14  C6  UNL     1       2.557   5.431   1.854  1.00  0.00     0.028 A   
ATOM     15  C7  UNL     1       3.338   4.836   0.898  1.00  0.00     0.136 A   
ENDBRANCH  10  11
ENDBRANCH   8  10
ENDBRANCH   7   8
BRANCH   7  16
ATOM     16  C9  UNL     1      -3.324   2.649  -0.331  1.00  0.00     0.185 C   
BRANCH  16  17
ATOM     17  O2  UNL     1      -3.599   4.035  -0.511  1.00  0.00    -0.394 OA  
ATOM     18  H11 UNL     1      -4.518   4.187  -0.229  1.00  0.00     0.210 HD  
ENDBRANCH  16  17
ENDBRANCH   7  16
ENDBRANCH   1   7
BRANCH   3  19
ATOM     19  C12 UNL     1      -0.204  -2.225  -2.117  1.00  0.00     0.114 C   
BRANCH  19  20
ATOM     20  C13 UNL     1      -1.073  -3.004  -3.121  1.00  0.00     0.064 C   
BRANCH  20  21
ATOM     21  C14 UNL     1      -1.476  -2.218  -4.388  1.00  0.00    -0.012 C   
ATOM     22  C15 UNL     1      -2.366  -3.091  -5.279  1.00  0.00     0.007 C   
ATOM     23  C16 UNL     1      -0.265  -1.737  -5.188  1.00  0.00     0.007 C   
ENDBRANCH  20  21
ENDBRANCH  19  20
BRANCH  19  24
ATOM     24  N2  UNL     1       0.147  -3.178  -0.999  1.00  0.00     0.249 N   
ATOM     25  H23 UNL     1       0.352  -4.117  -1.353  1.00  0.00     0.199 HD  
ATOM     26  H24 UNL     1      -0.698  -3.268  -0.413  1.00  0.00     0.199 HD  
BRANCH  24  27
ATOM     27  C17 UNL     1       1.260  -2.732  -0.115  1.00  0.00     0.164 C   
BRANCH  27  28
ATOM     28  C18 UNL     1       1.420  -3.665   1.050  1.00  0.00    -0.002 A   
ATOM     29  C19 UNL     1       2.398  -4.684   1.029  1.00  0.00     0.012 A   
ATOM     30  C23 UNL     1       0.560  -3.550   2.158  1.00  0.00     0.045 A   
ATOM     31  C20 UNL     1       2.531  -5.572   2.101  1.00  0.00     0.037 A   
ATOM     32  C22 UNL     1       0.717  -4.444   3.196  1.00  0.00     0.109 A   
ATOM     33  C21 UNL     1       1.676  -5.426   3.170  1.00  0.00     0.108 A   
ATOM     34  O3  UNL     1      -0.026  -4.475   4.335  1.00  0.00    -0.316 OA  
ATOM     35  O4  UNL     1       1.659  -6.196   4.289  1.00  0.00    -0.316 OA  
ATOM     36  C24 UNL     1       0.586  -5.582   5.034  1.00  0.00     0.337 C   
ENDBRANCH  27  28
ENDBRANCH  24  27
ENDBRANCH  19  24
ENDBRANCH   3  19
TORSDOF 12
