REMARK SMILES C/C(=C\c1ccco1)[C@@H](CO)n1cc([C@H](CC(C)C)[NH2+]Cc2ccc3c(c2)OCO3)nn1
REMARK SMILES IDX 12 1 13 2 14 3 31 4 32 5 9 7 2 8 1 9 3 10 4 11 5 12 8 13
REMARK SMILES IDX 6 14 7 15 10 16 11 17 15 19 16 20 17 21 18 22 19 23 20 24
REMARK SMILES IDX 21 27 22 28 23 29 27 30 24 31 26 32 25 33 28 34 30 35 29 36
REMARK H PARENT 13 6 11 18 20 25 20 26
ROOT
ATOM     1   N1  UNL     1       2.706   1.036  -0.271  1.00  0.00    -0.203 N   
ATOM     2   C10 UNL     1       1.801   0.276   0.421  1.00  0.00     0.046 A   
ATOM     3   C11 UNL     1       1.794  -0.927  -0.243  1.00  0.00     0.127 A   
ATOM     4   N3  UNL     1       2.697  -0.880  -1.273  1.00  0.00    -0.132 NA  
ATOM     5   N4  UNL     1       3.242   0.326  -1.286  1.00  0.00    -0.075 NA  
ATOM     6   H12 UNL     1       1.235   0.673   1.253  1.00  0.00     0.083 HD  
ENDROOT
BRANCH   1   7
ATOM     7   C8  UNL     1       2.952   2.477  -0.151  1.00  0.00     0.151 C   
BRANCH   7   8
ATOM     8   C2  UNL     1       1.650   3.244  -0.454  1.00  0.00    -0.046 C   
ATOM     9   C1  UNL     1       1.286   3.237  -1.925  1.00  0.00     0.042 C   
BRANCH   8  10
ATOM     10  C3  UNL     1       0.916   3.855   0.500  1.00  0.00     0.035 C   
BRANCH  10  11
ATOM     11  C4  UNL     1      -0.365   4.435   0.275  1.00  0.00     0.081 A   
ATOM     12  C5  UNL     1      -0.974   5.477   0.966  1.00  0.00     0.036 A   
ATOM     13  O1  UNL     1      -1.269   3.984  -0.665  1.00  0.00    -0.318 OA  
ATOM     14  C6  UNL     1      -2.258   5.681   0.407  1.00  0.00     0.028 A   
ATOM     15  C7  UNL     1      -2.387   4.746  -0.586  1.00  0.00     0.136 A   
ENDBRANCH  10  11
ENDBRANCH   8  10
ENDBRANCH   7   8
BRANCH   7  16
ATOM     16  C9  UNL     1       3.715   2.795   1.155  1.00  0.00     0.185 C   
BRANCH  16  17
ATOM     17  O2  UNL     1       3.006   2.410   2.333  1.00  0.00    -0.394 OA  
ATOM     18  H11 UNL     1       3.568   2.651   3.094  1.00  0.00     0.210 HD  
ENDBRANCH  16  17
ENDBRANCH   7  16
ENDBRANCH   1   7
BRANCH   3  19
ATOM     19  C12 UNL     1       0.913  -2.118  -0.069  1.00  0.00     0.114 C   
BRANCH  19  20
ATOM     20  C13 UNL     1       1.684  -3.295   0.566  1.00  0.00     0.064 C   
BRANCH  20  21
ATOM     21  C14 UNL     1       0.869  -4.251   1.467  1.00  0.00    -0.012 C   
ATOM     22  C15 UNL     1      -0.285  -4.943   0.748  1.00  0.00     0.007 C   
ATOM     23  C16 UNL     1       0.366  -3.555   2.734  1.00  0.00     0.007 C   
ENDBRANCH  20  21
ENDBRANCH  19  20
BRANCH  19  24
ATOM     24  N2  UNL     1       0.378  -2.556  -1.416  1.00  0.00     0.249 N   
ATOM     25  H23 UNL     1       1.200  -2.733  -2.009  1.00  0.00     0.199 HD  
ATOM     26  H24 UNL     1      -0.131  -3.438  -1.331  1.00  0.00     0.199 HD  
BRANCH  24  27
ATOM     27  C17 UNL     1      -0.478  -1.567  -2.145  1.00  0.00     0.164 C   
BRANCH  27  28
ATOM     28  C18 UNL     1      -1.716  -1.169  -1.390  1.00  0.00    -0.002 A   
ATOM     29  C19 UNL     1      -1.832   0.136  -0.852  1.00  0.00     0.012 A   
ATOM     30  C23 UNL     1      -2.756  -2.093  -1.190  1.00  0.00     0.045 A   
ATOM     31  C20 UNL     1      -2.959   0.515  -0.116  1.00  0.00     0.037 A   
ATOM     32  C22 UNL     1      -3.853  -1.687  -0.460  1.00  0.00     0.109 A   
ATOM     33  C21 UNL     1      -3.953  -0.421   0.063  1.00  0.00     0.108 A   
ATOM     34  O3  UNL     1      -4.936  -2.455  -0.170  1.00  0.00    -0.316 OA  
ATOM     35  O4  UNL     1      -5.112  -0.232   0.746  1.00  0.00    -0.316 OA  
ATOM     36  C24 UNL     1      -5.747  -1.516   0.573  1.00  0.00     0.337 C   
ENDBRANCH  27  28
ENDBRANCH  24  27
ENDBRANCH  19  24
ENDBRANCH   3  19
TORSDOF 12
