REMARK SMILES C/C(=C/c1ccco1)[C@H](CO)n1cc([C@H](CC(C)C)[NH2+]Cc2ccc3c(c2)OCO3)nn1
REMARK SMILES IDX 12 1 13 2 14 3 31 4 32 5 9 7 2 8 1 9 3 10 4 11 5 12 8 13
REMARK SMILES IDX 6 14 7 15 10 16 11 17 15 19 16 20 17 21 18 22 19 23 20 24
REMARK SMILES IDX 21 27 22 28 23 29 27 30 24 31 26 32 25 33 28 34 30 35 29 36
REMARK H PARENT 13 6 11 18 20 25 20 26
ROOT
ATOM     1   N1  UNL     1      -0.815  -0.858   1.434  1.00  0.00    -0.203 N   
ATOM     2   C10 UNL     1       0.224  -0.232   0.799  1.00  0.00     0.046 A   
ATOM     3   C11 UNL     1       0.146   1.072   1.225  1.00  0.00     0.127 A   
ATOM     4   N3  UNL     1      -0.894   1.197   2.107  1.00  0.00    -0.132 NA  
ATOM     5   N4  UNL     1      -1.477   0.014   2.225  1.00  0.00    -0.075 NA  
ATOM     6   H12 UNL     1       0.873  -0.753   0.111  1.00  0.00     0.083 HD  
ENDROOT
BRANCH   1   7
ATOM     7   C8  UNL     1      -1.246  -2.253   1.282  1.00  0.00     0.151 C   
BRANCH   7   8
ATOM     8   C2  UNL     1      -2.638  -2.335   0.635  1.00  0.00    -0.046 C   
ATOM     9   C1  UNL     1      -3.815  -2.301   1.590  1.00  0.00     0.042 C   
BRANCH   8  10
ATOM     10  C3  UNL     1      -2.897  -2.458  -0.685  1.00  0.00     0.035 C   
BRANCH  10  11
ATOM     11  C4  UNL     1      -1.930  -2.478  -1.732  1.00  0.00     0.081 A   
ATOM     12  C5  UNL     1      -2.113  -2.896  -3.048  1.00  0.00     0.036 A   
ATOM     13  O1  UNL     1      -0.628  -2.041  -1.626  1.00  0.00    -0.318 OA  
ATOM     14  C6  UNL     1      -0.887  -2.742  -3.737  1.00  0.00     0.028 A   
ATOM     15  C7  UNL     1      -0.012  -2.221  -2.820  1.00  0.00     0.136 A   
ENDBRANCH  10  11
ENDBRANCH   8  10
ENDBRANCH   7   8
BRANCH   7  16
ATOM     16  C9  UNL     1      -1.116  -3.005   2.623  1.00  0.00     0.185 C   
BRANCH  16  17
ATOM     17  O2  UNL     1       0.261  -3.172   2.976  1.00  0.00    -0.394 OA  
ATOM     18  H11 UNL     1       0.279  -3.671   3.814  1.00  0.00     0.210 HD  
ENDBRANCH  16  17
ENDBRANCH   7  16
ENDBRANCH   1   7
BRANCH   3  19
ATOM     19  C12 UNL     1       0.913   2.272   0.802  1.00  0.00     0.114 C   
BRANCH  19  20
ATOM     20  C13 UNL     1       1.979   2.722   1.821  1.00  0.00     0.064 C   
BRANCH  20  21
ATOM     21  C14 UNL     1       3.126   1.706   2.025  1.00  0.00    -0.012 C   
ATOM     22  C15 UNL     1       4.457   2.442   2.207  1.00  0.00     0.007 C   
ATOM     23  C16 UNL     1       2.884   0.813   3.244  1.00  0.00     0.007 C   
ENDBRANCH  20  21
ENDBRANCH  19  20
BRANCH  19  24
ATOM     24  N2  UNL     1      -0.023   3.449   0.598  1.00  0.00     0.249 N   
ATOM     25  H23 UNL     1       0.521   4.292   0.396  1.00  0.00     0.199 HD  
ATOM     26  H24 UNL     1      -0.499   3.595   1.498  1.00  0.00     0.199 HD  
BRANCH  24  27
ATOM     27  C17 UNL     1      -1.087   3.285  -0.439  1.00  0.00     0.164 C   
BRANCH  27  28
ATOM     28  C18 UNL     1      -0.547   3.081  -1.826  1.00  0.00    -0.002 A   
ATOM     29  C19 UNL     1      -0.628   1.808  -2.441  1.00  0.00     0.012 A   
ATOM     30  C23 UNL     1       0.056   4.146  -2.516  1.00  0.00     0.045 A   
ATOM     31  C20 UNL     1      -0.114   1.596  -3.724  1.00  0.00     0.037 A   
ATOM     32  C22 UNL     1       0.553   3.902  -3.779  1.00  0.00     0.109 A   
ATOM     33  C21 UNL     1       0.472   2.663  -4.365  1.00  0.00     0.108 A   
ATOM     34  O3  UNL     1       1.162   4.816  -4.580  1.00  0.00    -0.316 OA  
ATOM     35  O4  UNL     1       1.016   2.642  -5.610  1.00  0.00    -0.316 OA  
ATOM     36  C24 UNL     1       1.412   4.021  -5.763  1.00  0.00     0.337 C   
ENDBRANCH  27  28
ENDBRANCH  24  27
ENDBRANCH  19  24
ENDBRANCH   3  19
TORSDOF 12
