REMARK SMILES COCc1cccc(Cn2cc([C@@H]([NH2+]Cc3ccc4c(c3)OCO4)C3CCCC3)nn2)n1
REMARK SMILES IDX 10 1 11 2 12 3 30 4 31 5 9 7 8 8 4 9 5 10 32 11 6 12 7 13
REMARK SMILES IDX 3 14 2 15 1 16 13 17 14 18 15 21 16 22 17 23 21 24 18 25
REMARK SMILES IDX 20 26 19 27 22 28 24 29 23 30 25 31 26 32 29 33 27 34 28 35
REMARK H PARENT 11 6 14 19 14 20
ROOT
ATOM     1   N1  UNL     1       1.127  -1.034   4.223  1.00  0.00    -0.206 N   
ATOM     2   C9  UNL     1       0.417  -1.584   3.187  1.00  0.00     0.046 A   
ATOM     3   C10 UNL     1      -0.489  -0.605   2.861  1.00  0.00     0.127 A   
ATOM     4   N3  UNL     1      -0.440   0.382   3.809  1.00  0.00    -0.132 NA  
ATOM     5   N4  UNL     1       0.544   0.104   4.648  1.00  0.00    -0.076 NA  
ATOM     6   H11 UNL     1       0.746  -2.485   2.692  1.00  0.00     0.083 HD  
ENDROOT
BRANCH   1   7
ATOM     7   C8  UNL     1       2.487  -1.365   4.619  1.00  0.00     0.190 C   
BRANCH   7   8
ATOM     8   C7  UNL     1       3.442  -0.821   3.578  1.00  0.00     0.060 A   
ATOM     9   C3  UNL     1       3.960  -0.607   1.302  1.00  0.00     0.066 A   
ATOM     10  C4  UNL     1       5.069   0.174   1.602  1.00  0.00     0.026 A   
ATOM     11  N5  UNL     1       3.167  -1.116   2.276  1.00  0.00    -0.254 NA  
ATOM     12  C5  UNL     1       5.358   0.454   2.938  1.00  0.00     0.004 A   
ATOM     13  C6  UNL     1       4.535  -0.045   3.942  1.00  0.00     0.025 A   
BRANCH   9  14
ATOM     14  C2  UNL     1       3.613  -0.942  -0.137  1.00  0.00     0.215 C   
BRANCH  14  15
ATOM     15  O1  UNL     1       2.183  -1.107  -0.315  1.00  0.00    -0.378 OA  
ATOM     16  C1  UNL     1       1.863  -2.485  -0.528  1.00  0.00     0.195 C   
ENDBRANCH  14  15
ENDBRANCH   9  14
ENDBRANCH   7   8
ENDBRANCH   1   7
BRANCH   3  17
ATOM     17  C11 UNL     1      -1.279  -0.387   1.620  1.00  0.00     0.117 C   
BRANCH  17  18
ATOM     18  N2  UNL     1      -0.417   0.297   0.578  1.00  0.00     0.249 N   
ATOM     19  H13 UNL     1      -0.912   0.355  -0.317  1.00  0.00     0.199 HD  
ATOM     20  H14 UNL     1       0.446  -0.257   0.399  1.00  0.00     0.199 HD  
BRANCH  18  21
ATOM     21  C12 UNL     1       0.029   1.677   0.953  1.00  0.00     0.164 C   
BRANCH  21  22
ATOM     22  C13 UNL     1       0.370   2.469  -0.281  1.00  0.00    -0.002 A   
ATOM     23  C14 UNL     1      -0.596   3.313  -0.880  1.00  0.00     0.012 A   
ATOM     24  C18 UNL     1       1.632   2.331  -0.879  1.00  0.00     0.045 A   
ATOM     25  C15 UNL     1      -0.308   4.013  -2.056  1.00  0.00     0.037 A   
ATOM     26  C17 UNL     1       1.883   3.028  -2.042  1.00  0.00     0.109 A   
ATOM     27  C16 UNL     1       0.939   3.844  -2.615  1.00  0.00     0.108 A   
ATOM     28  O2  UNL     1       3.046   3.004  -2.747  1.00  0.00    -0.316 OA  
ATOM     29  O3  UNL     1       1.389   4.438  -3.751  1.00  0.00    -0.316 OA  
ATOM     30  C19 UNL     1       2.726   3.901  -3.836  1.00  0.00     0.337 C   
ENDBRANCH  21  22
ENDBRANCH  18  21
ENDBRANCH  17  18
BRANCH  17  31
ATOM     31  C20 UNL     1      -1.877  -1.661   0.999  1.00  0.00     0.043 C   
ATOM     32  C21 UNL     1      -2.854  -1.365  -0.154  1.00  0.00     0.010 C   
ATOM     33  C24 UNL     1      -2.731  -2.490   1.965  1.00  0.00     0.010 C   
ATOM     34  C22 UNL     1      -3.893  -2.489  -0.143  1.00  0.00     0.001 C   
ATOM     35  C23 UNL     1      -3.541  -3.383   1.036  1.00  0.00     0.001 C   
ENDBRANCH  17  31
ENDBRANCH   3  17
TORSDOF 9
