REMARK SMILES c1cc2c(o1)CCN[C@@H]2Cn1cc([C@@H]([NH2+]Cc2ccc3c(c2)OCO3)C2CCCC2)nn1
REMARK SMILES IDX 11 1 12 2 13 3 31 4 32 5 10 7 9 8 1 9 2 10 5 11 3 12 4 13
REMARK SMILES IDX 6 14 8 15 7 16 14 18 15 19 16 22 17 23 18 24 22 25 19 26
REMARK SMILES IDX 21 27 20 28 23 29 25 30 24 31 26 32 27 33 30 34 28 35 29 36
REMARK H PARENT 12 6 8 17 15 20 15 21
ROOT
ATOM     1   N2  UNL     1      -1.788  -2.106   1.064  1.00  0.00    -0.210 N   
ATOM     2   C9  UNL     1      -0.743  -1.472   0.453  1.00  0.00     0.045 A   
ATOM     3   C10 UNL     1       0.068  -1.089   1.497  1.00  0.00     0.127 A   
ATOM     4   N4  UNL     1      -0.458  -1.556   2.673  1.00  0.00    -0.132 NA  
ATOM     5   N5  UNL     1      -1.579  -2.199   2.392  1.00  0.00    -0.076 NA  
ATOM     6   H11 UNL     1      -0.704  -1.302  -0.613  1.00  0.00     0.083 HD  
ENDROOT
BRANCH   1   7
ATOM     7   C8  UNL     1      -2.986  -2.658   0.463  1.00  0.00     0.157 C   
BRANCH   7   8
ATOM     8   C7  UNL     1      -4.088  -1.617   0.167  1.00  0.00     0.106 C   
ATOM     9   C1  UNL     1      -3.066   0.436  -2.774  1.00  0.00     0.136 A   
ATOM     10  C2  UNL     1      -3.117  -0.819  -2.200  1.00  0.00     0.033 A   
ATOM     11  O1  UNL     1      -3.620   1.366  -1.949  1.00  0.00    -0.322 OA  
ATOM     12  C3  UNL     1      -3.722  -0.651  -0.927  1.00  0.00    -0.001 A   
ATOM     13  C4  UNL     1      -4.038   0.688  -0.860  1.00  0.00     0.065 A   
ATOM     14  C5  UNL     1      -4.755   1.371   0.235  1.00  0.00     0.077 C   
ATOM     15  N1  UNL     1      -4.455  -0.845   1.390  1.00  0.00    -0.308 NA  
ATOM     16  C6  UNL     1      -5.388   0.273   1.121  1.00  0.00     0.088 C   
ATOM     17  H7  UNL     1      -4.887  -1.481   2.064  1.00  0.00     0.123 HD  
ENDBRANCH   7   8
ENDBRANCH   1   7
BRANCH   3  18
ATOM     18  C11 UNL     1       1.276  -0.215   1.519  1.00  0.00     0.117 C   
BRANCH  18  19
ATOM     19  N3  UNL     1       1.183   0.771   2.662  1.00  0.00     0.249 N   
ATOM     20  H13 UNL     1       0.985   0.220   3.508  1.00  0.00     0.199 HD  
ATOM     21  H14 UNL     1       2.076   1.246   2.810  1.00  0.00     0.199 HD  
BRANCH  19  22
ATOM     22  C12 UNL     1       0.094   1.792   2.559  1.00  0.00     0.164 C   
BRANCH  22  23
ATOM     23  C13 UNL     1       0.241   2.697   1.368  1.00  0.00    -0.002 A   
ATOM     24  C14 UNL     1      -0.636   2.565   0.265  1.00  0.00     0.012 A   
ATOM     25  C18 UNL     1       1.271   3.652   1.323  1.00  0.00     0.045 A   
ATOM     26  C15 UNL     1      -0.490   3.365  -0.873  1.00  0.00     0.037 A   
ATOM     27  C17 UNL     1       1.388   4.424   0.185  1.00  0.00     0.109 A   
ATOM     28  C16 UNL     1       0.535   4.284  -0.882  1.00  0.00     0.108 A   
ATOM     29  O2  UNL     1       2.328   5.384  -0.023  1.00  0.00    -0.316 OA  
ATOM     30  O3  UNL     1       0.832   5.136  -1.897  1.00  0.00    -0.316 OA  
ATOM     31  C19 UNL     1       1.944   5.863  -1.332  1.00  0.00     0.337 C   
ENDBRANCH  22  23
ENDBRANCH  19  22
ENDBRANCH  18  19
BRANCH  18  32
ATOM     32  C20 UNL     1       2.586  -1.027   1.603  1.00  0.00     0.043 C   
ATOM     33  C21 UNL     1       3.842  -0.191   1.301  1.00  0.00     0.010 C   
ATOM     34  C24 UNL     1       2.877  -1.734   2.942  1.00  0.00     0.010 C   
ATOM     35  C22 UNL     1       4.951  -0.888   2.073  1.00  0.00     0.001 C   
ATOM     36  C23 UNL     1       4.265  -1.270   3.372  1.00  0.00     0.001 C   
ENDBRANCH  18  32
ENDBRANCH   3  18
TORSDOF 7
