REMARK SMILES c1cc2c(o1)CCN[C@H]2Cn1cc([C@@H]([NH2+]Cc2ccc3c(c2)OCO3)C2CCCC2)nn1
REMARK SMILES IDX 11 1 12 2 13 3 31 4 32 5 10 7 9 8 1 9 2 10 5 11 3 12 4 13
REMARK SMILES IDX 6 14 8 15 7 16 14 18 15 19 16 22 17 23 18 24 22 25 19 26
REMARK SMILES IDX 21 27 20 28 23 29 25 30 24 31 26 32 27 33 30 34 28 35 29 36
REMARK H PARENT 12 6 8 17 15 20 15 21
ROOT
ATOM     1   N2  UNL     1      -2.170   0.021   1.096  1.00  0.00    -0.210 N   
ATOM     2   C9  UNL     1      -2.046   0.633  -0.121  1.00  0.00     0.045 A   
ATOM     3   C10 UNL     1      -0.977  -0.006  -0.708  1.00  0.00     0.127 A   
ATOM     4   N4  UNL     1      -0.484  -0.945   0.163  1.00  0.00    -0.132 NA  
ATOM     5   N5  UNL     1      -1.227  -0.923   1.257  1.00  0.00    -0.076 NA  
ATOM     6   H11 UNL     1      -2.712   1.424  -0.442  1.00  0.00     0.083 HD  
ENDROOT
BRANCH   1   7
ATOM     7   C8  UNL     1      -3.178   0.250   2.109  1.00  0.00     0.157 C   
BRANCH   7   8
ATOM     8   C7  UNL     1      -2.625   0.513   3.523  1.00  0.00     0.106 C   
ATOM     9   C1  UNL     1      -0.449   3.544   3.503  1.00  0.00     0.136 A   
ATOM     10  C2  UNL     1      -0.752   2.331   2.921  1.00  0.00     0.033 A   
ATOM     11  O1  UNL     1      -1.281   3.796   4.551  1.00  0.00    -0.322 OA  
ATOM     12  C3  UNL     1      -1.863   1.807   3.633  1.00  0.00    -0.001 A   
ATOM     13  C4  UNL     1      -2.106   2.731   4.624  1.00  0.00     0.065 A   
ATOM     14  C5  UNL     1      -3.105   2.621   5.703  1.00  0.00     0.077 C   
ATOM     15  N1  UNL     1      -3.803   0.551   4.447  1.00  0.00    -0.308 NA  
ATOM     16  C6  UNL     1      -3.511   1.132   5.778  1.00  0.00     0.088 C   
ATOM     17  H7  UNL     1      -4.142  -0.402   4.583  1.00  0.00     0.123 HD  
ENDBRANCH   7   8
ENDBRANCH   1   7
BRANCH   3  18
ATOM     18  C11 UNL     1      -0.305   0.188  -2.030  1.00  0.00     0.117 C   
BRANCH  18  19
ATOM     19  N3  UNL     1       1.176  -0.053  -1.867  1.00  0.00     0.249 N   
ATOM     20  H13 UNL     1       1.274  -0.892  -1.272  1.00  0.00     0.199 HD  
ATOM     21  H14 UNL     1       1.636  -0.281  -2.754  1.00  0.00     0.199 HD  
BRANCH  19  22
ATOM     22  C12 UNL     1       1.923   1.051  -1.207  1.00  0.00     0.164 C   
BRANCH  22  23
ATOM     23  C13 UNL     1       3.331   0.631  -0.901  1.00  0.00    -0.002 A   
ATOM     24  C14 UNL     1       4.359   0.801  -1.858  1.00  0.00     0.012 A   
ATOM     25  C18 UNL     1       3.622   0.015   0.328  1.00  0.00     0.045 A   
ATOM     26  C15 UNL     1       5.664   0.375  -1.591  1.00  0.00     0.037 A   
ATOM     27  C17 UNL     1       4.919  -0.392   0.560  1.00  0.00     0.109 A   
ATOM     28  C16 UNL     1       5.912  -0.218  -0.372  1.00  0.00     0.108 A   
ATOM     29  O2  UNL     1       5.367  -0.996   1.691  1.00  0.00    -0.316 OA  
ATOM     30  O3  UNL     1       7.110  -0.693   0.056  1.00  0.00    -0.316 OA  
ATOM     31  C19 UNL     1       6.765  -1.172   1.374  1.00  0.00     0.337 C   
ENDBRANCH  22  23
ENDBRANCH  19  22
ENDBRANCH  18  19
BRANCH  18  32
ATOM     32  C20 UNL     1      -0.847  -0.775  -3.103  1.00  0.00     0.043 C   
ATOM     33  C21 UNL     1      -2.332  -0.568  -3.416  1.00  0.00     0.010 C   
ATOM     34  C24 UNL     1      -0.199  -0.608  -4.486  1.00  0.00     0.010 C   
ATOM     35  C22 UNL     1      -2.523  -1.324  -4.721  1.00  0.00     0.001 C   
ATOM     36  C23 UNL     1      -1.236  -1.088  -5.502  1.00  0.00     0.001 C   
ENDBRANCH  18  32
ENDBRANCH   3  18
TORSDOF 7
