REMARK SMILES CC(C)C[C@H]([NH2+]Cc1ccc2c(c1)OCO2)c1cn(CC(=O)c2ccc(O)cc2)nn1
REMARK SMILES IDX 17 1 18 2 19 3 30 4 31 5 5 7 4 8 2 9 1 10 3 11 6 12 7 15
REMARK SMILES IDX 8 16 9 17 13 18 10 19 12 20 11 21 14 22 16 23 15 24 20 25
REMARK SMILES IDX 21 26 22 27 23 28 24 29 29 30 25 31 28 32 26 33 27 34
REMARK H PARENT 18 6 6 13 6 14 27 35
ROOT
ATOM     1   C14 UNL     1       1.055   0.190   0.355  1.00  0.00     0.127 A   
ATOM     2   C15 UNL     1      -0.307   0.296   0.526  1.00  0.00     0.046 A   
ATOM     3   N2  UNL     1      -0.539  -0.319   1.723  1.00  0.00    -0.204 N   
ATOM     4   N3  UNL     1       0.615  -0.707   2.296  1.00  0.00    -0.076 NA  
ATOM     5   N4  UNL     1       1.599  -0.416   1.460  1.00  0.00    -0.132 NA  
ATOM     6   H20 UNL     1      -1.108   0.691  -0.087  1.00  0.00     0.083 HD  
ENDROOT
BRANCH   1   7
ATOM     7   C5  UNL     1       1.945   0.634  -0.757  1.00  0.00     0.114 C   
BRANCH   7   8
ATOM     8   C4  UNL     1       2.253  -0.503  -1.754  1.00  0.00     0.064 C   
BRANCH   8   9
ATOM     9   C2  UNL     1       1.035  -1.054  -2.526  1.00  0.00    -0.012 C   
ATOM     10  C1  UNL     1       1.476  -2.215  -3.422  1.00  0.00     0.007 C   
ATOM     11  C3  UNL     1       0.348   0.018  -3.373  1.00  0.00     0.007 C   
ENDBRANCH   8   9
ENDBRANCH   7   8
BRANCH   7  12
ATOM     12  N1  UNL     1       3.279   1.097  -0.203  1.00  0.00     0.249 N   
ATOM     13  H11 UNL     1       3.610   0.344   0.417  1.00  0.00     0.199 HD  
ATOM     14  H12 UNL     1       3.962   1.188  -0.961  1.00  0.00     0.199 HD  
BRANCH  12  15
ATOM     15  C6  UNL     1       3.262   2.359   0.594  1.00  0.00     0.164 C   
BRANCH  15  16
ATOM     16  C7  UNL     1       2.923   3.568  -0.233  1.00  0.00    -0.002 A   
ATOM     17  C8  UNL     1       1.664   4.199  -0.090  1.00  0.00     0.012 A   
ATOM     18  C12 UNL     1       3.842   4.063  -1.175  1.00  0.00     0.045 A   
ATOM     19  C9  UNL     1       1.319   5.303  -0.878  1.00  0.00     0.037 A   
ATOM     20  C11 UNL     1       3.470   5.152  -1.935  1.00  0.00     0.109 A   
ATOM     21  C10 UNL     1       2.244   5.754  -1.793  1.00  0.00     0.108 A   
ATOM     22  O1  UNL     1       4.233   5.747  -2.889  1.00  0.00    -0.316 OA  
ATOM     23  O2  UNL     1       2.082   6.805  -2.638  1.00  0.00    -0.316 OA  
ATOM     24  C13 UNL     1       3.357   6.816  -3.314  1.00  0.00     0.337 C   
ENDBRANCH  15  16
ENDBRANCH  12  15
ENDBRANCH   7  12
ENDBRANCH   1   7
BRANCH   3  25
ATOM     25  C16 UNL     1      -1.805  -0.568   2.374  1.00  0.00     0.214 C   
BRANCH  25  26
ATOM     26  C17 UNL     1      -2.570  -1.638   1.640  1.00  0.00     0.182 C   
ATOM     27  O3  UNL     1      -3.138  -1.385   0.577  1.00  0.00    -0.292 OA  
BRANCH  26  28
ATOM     28  C18 UNL     1      -2.633  -3.020   2.194  1.00  0.00     0.019 A   
ATOM     29  C19 UNL     1      -1.686  -3.510   3.102  1.00  0.00     0.014 A   
ATOM     30  C23 UNL     1      -3.673  -3.858   1.761  1.00  0.00     0.014 A   
ATOM     31  C20 UNL     1      -1.794  -4.818   3.582  1.00  0.00     0.034 A   
ATOM     32  C22 UNL     1      -3.778  -5.165   2.244  1.00  0.00     0.034 A   
ATOM     33  C21 UNL     1      -2.837  -5.632   3.154  1.00  0.00     0.071 A   
BRANCH  33  34
ATOM     34  O4  UNL     1      -2.895  -6.897   3.653  1.00  0.00    -0.361 OA  
ATOM     35  H25 UNL     1      -3.668  -7.354   3.281  1.00  0.00     0.218 HD  
ENDBRANCH  33  34
ENDBRANCH  26  28
ENDBRANCH  25  26
ENDBRANCH   3  25
TORSDOF 10
