REMARK SMILES O=C(Cn1cc([C@@H]([NH2+]Cc2ccc3c(c2)OCO3)C2CCCC2)nn1)c1cccs1
REMARK SMILES IDX 4 1 5 2 6 3 24 4 25 5 3 7 2 8 1 9 26 10 27 11 30 12 28 13
REMARK SMILES IDX 29 14 7 15 8 16 9 19 10 20 11 21 15 22 12 23 14 24 13 25
REMARK SMILES IDX 16 26 18 27 17 28 19 29 20 30 23 31 21 32 22 33
REMARK H PARENT 5 6 8 17 8 18
ROOT
ATOM     1   N1  UNL     1      -0.802  -2.766   0.881  1.00  0.00    -0.204 N   
ATOM     2   C3  UNL     1      -1.132  -1.453   1.070  1.00  0.00     0.046 A   
ATOM     3   C4  UNL     1      -1.088  -0.915  -0.196  1.00  0.00     0.127 A   
ATOM     4   N3  UNL     1      -0.769  -1.904  -1.093  1.00  0.00    -0.132 NA  
ATOM     5   N4  UNL     1      -0.608  -3.031  -0.424  1.00  0.00    -0.076 NA  
ATOM     6   H3  UNL     1      -1.314  -1.036   2.051  1.00  0.00     0.083 HD  
ENDROOT
BRANCH   1   7
ATOM     7   C2  UNL     1      -0.654  -3.814   1.872  1.00  0.00     0.215 C   
BRANCH   7   8
ATOM     8   C1  UNL     1       0.697  -3.743   2.557  1.00  0.00     0.188 C   
ATOM     9   O1  UNL     1       1.402  -2.734   2.449  1.00  0.00    -0.292 OA  
BRANCH   8  10
ATOM     10  C19 UNL     1       1.118  -4.875   3.378  1.00  0.00     0.056 A   
ATOM     11  C20 UNL     1       2.345  -5.030   3.999  1.00  0.00     0.020 A   
ATOM     12  S1  UNL     1       0.091  -6.202   3.713  1.00  0.00    -0.094 S   
ATOM     13  C21 UNL     1       2.442  -6.248   4.731  1.00  0.00     0.009 A   
ATOM     14  C22 UNL     1       1.279  -6.979   4.664  1.00  0.00     0.046 A   
ENDBRANCH   8  10
ENDBRANCH   7   8
ENDBRANCH   1   7
BRANCH   3  15
ATOM     15  C5  UNL     1      -1.229   0.491  -0.679  1.00  0.00     0.117 C   
BRANCH  15  16
ATOM     16  N2  UNL     1      -0.260   0.726  -1.819  1.00  0.00     0.249 N   
ATOM     17  H5  UNL     1      -0.347  -0.095  -2.437  1.00  0.00     0.199 HD  
ATOM     18  H6  UNL     1      -0.533   1.549  -2.366  1.00  0.00     0.199 HD  
BRANCH  16  19
ATOM     19  C6  UNL     1       1.180   0.842  -1.440  1.00  0.00     0.164 C   
BRANCH  19  20
ATOM     20  C7  UNL     1       1.500   2.173  -0.817  1.00  0.00    -0.002 A   
ATOM     21  C8  UNL     1       1.601   3.333  -1.624  1.00  0.00     0.012 A   
ATOM     22  C12 UNL     1       1.665   2.282   0.574  1.00  0.00     0.045 A   
ATOM     23  C9  UNL     1       1.857   4.585  -1.055  1.00  0.00     0.037 A   
ATOM     24  C11 UNL     1       1.911   3.532   1.103  1.00  0.00     0.109 A   
ATOM     25  C10 UNL     1       2.003   4.651   0.313  1.00  0.00     0.108 A   
ATOM     26  O2  UNL     1       2.083   3.812   2.422  1.00  0.00    -0.316 OA  
ATOM     27  O3  UNL     1       2.247   5.776   1.033  1.00  0.00    -0.316 OA  
ATOM     28  C13 UNL     1       2.321   5.237   2.371  1.00  0.00     0.337 C   
ENDBRANCH  19  20
ENDBRANCH  16  19
ENDBRANCH  15  16
BRANCH  15  29
ATOM     29  C14 UNL     1      -2.638   0.867  -1.174  1.00  0.00     0.043 C   
ATOM     30  C15 UNL     1      -3.205   0.036  -2.326  1.00  0.00     0.010 C   
ATOM     31  C18 UNL     1      -3.742   0.754  -0.119  1.00  0.00     0.010 C   
ATOM     32  C16 UNL     1      -4.677   0.433  -2.357  1.00  0.00     0.001 C   
ATOM     33  C17 UNL     1      -5.043   0.796  -0.918  1.00  0.00     0.001 C   
ENDBRANCH  15  29
ENDBRANCH   3  15
TORSDOF 8
