REMARK SMILES CC(=O)c1ccccc1-n1cc([C@@H]([NH2+]Cc2ccc3c(c2)OCO3)C2CCCC2)nn1
REMARK SMILES IDX 10 1 11 2 12 3 30 4 31 5 9 6 4 7 5 8 6 9 8 10 7 11 2 12 1 13
REMARK SMILES IDX 3 14 13 15 14 16 15 19 16 20 17 21 21 22 18 23 20 24 19 25
REMARK SMILES IDX 22 26 24 27 23 28 25 29 26 30 29 31 27 32 28 33
REMARK H PARENT 14 17 14 18
ROOT
ATOM     1   N1  UNL     1      -1.208  -0.490   2.877  1.00  0.00    -0.180 N   
ATOM     2   C9  UNL     1      -0.357   0.296   2.128  1.00  0.00     0.135 A   
ATOM     3   C10 UNL     1      -1.144   0.835   1.138  1.00  0.00     0.127 A   
ATOM     4   N3  UNL     1      -2.440   0.466   1.347  1.00  0.00    -0.131 NA  
ATOM     5   N4  UNL     1      -2.481  -0.279   2.440  1.00  0.00    -0.071 NA  
ENDROOT
BRANCH   1   6
ATOM     6   C8  UNL     1      -0.930  -1.365   3.957  1.00  0.00     0.068 A   
ATOM     7   C3  UNL     1       0.317  -1.999   4.139  1.00  0.00     0.041 A   
ATOM     8   C4  UNL     1       0.530  -2.784   5.285  1.00  0.00     0.014 A   
ATOM     9   C5  UNL     1      -0.485  -2.955   6.230  1.00  0.00     0.001 A   
ATOM     10  C7  UNL     1      -1.957  -1.582   4.896  1.00  0.00     0.027 A   
ATOM     11  C6  UNL     1      -1.730  -2.367   6.027  1.00  0.00     0.002 A   
BRANCH   7  12
ATOM     12  C2  UNL     1       1.368  -2.044   3.084  1.00  0.00     0.161 C   
ATOM     13  C1  UNL     1       2.818  -2.019   3.495  1.00  0.00     0.093 C   
ATOM     14  O1  UNL     1       1.034  -2.123   1.902  1.00  0.00    -0.294 OA  
ENDBRANCH   7  12
ENDBRANCH   1   6
BRANCH   3  15
ATOM     15  C11 UNL     1      -0.775   1.620  -0.074  1.00  0.00     0.117 C   
BRANCH  15  16
ATOM     16  N2  UNL     1      -1.216   0.864  -1.309  1.00  0.00     0.249 N   
ATOM     17  H10 UNL     1      -2.201   0.602  -1.157  1.00  0.00     0.199 HD  
ATOM     18  H11 UNL     1      -1.192   1.472  -2.131  1.00  0.00     0.199 HD  
BRANCH  16  19
ATOM     19  C12 UNL     1      -0.449  -0.384  -1.623  1.00  0.00     0.164 C   
BRANCH  19  20
ATOM     20  C13 UNL     1       0.975  -0.099  -2.018  1.00  0.00    -0.002 A   
ATOM     21  C14 UNL     1       1.268   0.522  -3.256  1.00  0.00     0.012 A   
ATOM     22  C18 UNL     1       2.023  -0.403  -1.133  1.00  0.00     0.045 A   
ATOM     23  C15 UNL     1       2.585   0.848  -3.603  1.00  0.00     0.037 A   
ATOM     24  C17 UNL     1       3.308  -0.063  -1.501  1.00  0.00     0.109 A   
ATOM     25  C16 UNL     1       3.581   0.545  -2.702  1.00  0.00     0.108 A   
ATOM     26  O2  UNL     1       4.425  -0.257  -0.751  1.00  0.00    -0.316 OA  
ATOM     27  O3  UNL     1       4.905   0.802  -2.864  1.00  0.00    -0.316 OA  
ATOM     28  C19 UNL     1       5.443   0.258  -1.640  1.00  0.00     0.337 C   
ENDBRANCH  19  20
ENDBRANCH  16  19
ENDBRANCH  15  16
BRANCH  15  29
ATOM     29  C20 UNL     1      -1.428   3.017  -0.088  1.00  0.00     0.043 C   
ATOM     30  C21 UNL     1      -1.042   3.881  -1.294  1.00  0.00     0.010 C   
ATOM     31  C24 UNL     1      -0.980   3.900   1.082  1.00  0.00     0.010 C   
ATOM     32  C22 UNL     1      -1.322   5.319  -0.861  1.00  0.00     0.001 C   
ATOM     33  C23 UNL     1      -1.398   5.302   0.664  1.00  0.00     0.001 C   
ENDBRANCH  15  29
ENDBRANCH   3  15
TORSDOF 7
