REMARK SMILES COc1cccc(F)c1Cn1cc([C@@H]([NH2+]Cc2ccc3c(c2)OCO3)C2CCCCC2)nn1
REMARK SMILES IDX 11 1 12 2 13 3 32 4 33 5 10 7 9 8 3 9 4 10 5 11 7 12 6 13
REMARK SMILES IDX 8 14 2 15 1 16 14 17 15 18 16 21 17 22 18 23 22 24 19 25
REMARK SMILES IDX 21 26 20 27 23 28 25 29 24 30 26 31 27 32 31 33 28 34 30 35
REMARK SMILES IDX 29 36
REMARK H PARENT 12 6 15 19 15 20
ROOT
ATOM     1   N1  UNL     1      -1.629   0.415  -2.061  1.00  0.00    -0.208 N   
ATOM     2   C9  UNL     1      -1.887   0.466  -0.717  1.00  0.00     0.046 A   
ATOM     3   C10 UNL     1      -0.904  -0.319  -0.159  1.00  0.00     0.127 A   
ATOM     4   N3  UNL     1      -0.141  -0.862  -1.161  1.00  0.00    -0.132 NA  
ATOM     5   N4  UNL     1      -0.616  -0.436  -2.319  1.00  0.00    -0.076 NA  
ATOM     6   H9  UNL     1      -2.681   1.074  -0.306  1.00  0.00     0.083 HD  
ENDROOT
BRANCH   1   7
ATOM     7   C8  UNL     1      -2.306   1.133  -3.131  1.00  0.00     0.175 C   
BRANCH   7   8
ATOM     8   C7  UNL     1      -1.531   2.358  -3.538  1.00  0.00     0.037 A   
ATOM     9   C2  UNL     1      -0.802   2.415  -4.738  1.00  0.00     0.082 A   
ATOM     10  C3  UNL     1      -0.084   3.575  -5.057  1.00  0.00     0.034 A   
ATOM     11  C4  UNL     1      -0.085   4.674  -4.192  1.00  0.00     0.006 A   
ATOM     12  C6  UNL     1      -1.516   3.472  -2.688  1.00  0.00     0.130 A   
ATOM     13  C5  UNL     1      -0.804   4.623  -3.003  1.00  0.00     0.040 A   
ATOM     14  F1  UNL     1      -2.201   3.435  -1.535  1.00  0.00    -0.207 F   
BRANCH   9  15
ATOM     15  O1  UNL     1      -0.867   1.298  -5.527  1.00  0.00    -0.349 OA  
ATOM     16  C1  UNL     1      -0.100   1.292  -6.726  1.00  0.00     0.203 C   
ENDBRANCH   9  15
ENDBRANCH   7   8
ENDBRANCH   1   7
BRANCH   3  17
ATOM     17  C11 UNL     1      -0.584  -0.632   1.268  1.00  0.00     0.117 C   
BRANCH  17  18
ATOM     18  N2  UNL     1       0.322  -1.832   1.352  1.00  0.00     0.249 N   
ATOM     19  H11 UNL     1       0.854  -1.859   2.225  1.00  0.00     0.199 HD  
ATOM     20  H12 UNL     1       1.014  -1.730   0.593  1.00  0.00     0.199 HD  
BRANCH  18  21
ATOM     21  C12 UNL     1      -0.348  -3.146   1.149  1.00  0.00     0.164 C   
BRANCH  21  22
ATOM     22  C13 UNL     1       0.664  -4.257   1.168  1.00  0.00    -0.002 A   
ATOM     23  C14 UNL     1       1.226  -4.727  -0.043  1.00  0.00     0.012 A   
ATOM     24  C18 UNL     1       1.101  -4.795   2.391  1.00  0.00     0.045 A   
ATOM     25  C15 UNL     1       2.203  -5.729  -0.039  1.00  0.00     0.037 A   
ATOM     26  C17 UNL     1       2.072  -5.774   2.359  1.00  0.00     0.109 A   
ATOM     27  C16 UNL     1       2.607  -6.229   1.179  1.00  0.00     0.108 A   
ATOM     28  O2  UNL     1       2.614  -6.384   3.446  1.00  0.00    -0.316 OA  
ATOM     29  O3  UNL     1       3.548  -7.189   1.373  1.00  0.00    -0.316 OA  
ATOM     30  C19 UNL     1       3.555  -7.283   2.814  1.00  0.00     0.337 C   
ENDBRANCH  21  22
ENDBRANCH  18  21
ENDBRANCH  17  18
BRANCH  17  31
ATOM     31  C20 UNL     1       0.054   0.581   1.999  1.00  0.00     0.043 C   
ATOM     32  C21 UNL     1       1.462   0.949   1.488  1.00  0.00     0.010 C   
ATOM     33  C25 UNL     1       0.077   0.383   3.528  1.00  0.00     0.010 C   
ATOM     34  C22 UNL     1       2.015   2.178   2.210  1.00  0.00     0.001 C   
ATOM     35  C24 UNL     1       0.632   1.613   4.244  1.00  0.00     0.001 C   
ATOM     36  C23 UNL     1       2.016   1.991   3.723  1.00  0.00     0.000 C   
ENDBRANCH  17  31
ENDBRANCH   3  17
TORSDOF 8
