REMARK SMILES c1cc2c(cc1C[NH2+][C@H](c1cn(Cc3cn4c(n3)CCCC4)nn1)C1CCCCC1)OCO2
REMARK SMILES IDX 9 1 8 2 7 5 6 6 1 7 2 8 3 9 5 10 4 11 33 12 31 13 32 14
REMARK SMILES IDX 10 15 11 16 24 17 12 18 23 19 13 21 14 22 15 23 18 24 16 25
REMARK SMILES IDX 17 26 22 27 19 28 21 29 20 30 25 31 26 32 30 33 27 34 29 35
REMARK SMILES IDX 28 36
REMARK H PARENT 8 3 8 4 11 20
ROOT
ATOM     1   C8  UNL     1       0.731   1.929  -0.004  1.00  0.00     0.117 C   
ENDROOT
BRANCH   1   2
ATOM     2   N1  UNL     1       0.133   3.218   0.515  1.00  0.00     0.249 N   
ATOM     3   H6  UNL     1       0.537   4.031   0.043  1.00  0.00     0.199 HD  
ATOM     4   H7  UNL     1       0.445   3.288   1.497  1.00  0.00     0.199 HD  
BRANCH   2   5
ATOM     5   C7  UNL     1      -1.352   3.329   0.484  1.00  0.00     0.164 C   
BRANCH   5   6
ATOM     6   C6  UNL     1      -2.094   2.202   1.147  1.00  0.00    -0.002 A   
ATOM     7   C1  UNL     1      -1.948   1.945   2.530  1.00  0.00     0.012 A   
ATOM     8   C2  UNL     1      -2.606   0.871   3.138  1.00  0.00     0.037 A   
ATOM     9   C3  UNL     1      -3.421   0.086   2.353  1.00  0.00     0.108 A   
ATOM     10  C5  UNL     1      -2.940   1.379   0.382  1.00  0.00     0.045 A   
ATOM     11  C4  UNL     1      -3.586   0.338   1.015  1.00  0.00     0.109 A   
ATOM     12  O2  UNL     1      -4.143  -0.986   2.770  1.00  0.00    -0.316 OA  
ATOM     13  O1  UNL     1      -4.442  -0.534   0.422  1.00  0.00    -0.316 OA  
ATOM     14  C25 UNL     1      -4.834  -1.339   1.553  1.00  0.00     0.337 C   
ENDBRANCH   5   6
ENDBRANCH   2   5
ENDBRANCH   1   2
BRANCH   1  15
ATOM     15  C9  UNL     1       1.103   1.057   1.151  1.00  0.00     0.127 A   
ATOM     16  C10 UNL     1       1.180  -0.310   1.269  1.00  0.00     0.046 A   
ATOM     17  N6  UNL     1       1.386   1.633   2.365  1.00  0.00    -0.132 NA  
ATOM     18  N2  UNL     1       1.466  -0.515   2.593  1.00  0.00    -0.206 N   
ATOM     19  N5  UNL     1       1.611   0.663   3.238  1.00  0.00    -0.076 NA  
ATOM     20  H9  UNL     1       1.023  -1.132   0.584  1.00  0.00     0.083 HD  
BRANCH  18  21
ATOM     21  C11 UNL     1       1.700  -1.773   3.282  1.00  0.00     0.191 C   
BRANCH  21  22
ATOM     22  C12 UNL     1       0.476  -2.619   3.302  1.00  0.00     0.076 A   
ATOM     23  C13 UNL     1      -0.217  -3.113   4.389  1.00  0.00     0.102 A   
ATOM     24  N4  UNL     1      -0.103  -3.065   2.130  1.00  0.00    -0.239 NA  
ATOM     25  N3  UNL     1      -1.214  -3.876   3.858  1.00  0.00    -0.294 N   
ATOM     26  C14 UNL     1      -1.126  -3.811   2.492  1.00  0.00     0.100 A   
ATOM     27  C18 UNL     1      -2.217  -4.630   4.581  1.00  0.00     0.112 C   
ATOM     28  C15 UNL     1      -2.058  -4.557   1.599  1.00  0.00     0.073 C   
ATOM     29  C17 UNL     1      -2.859  -5.708   3.706  1.00  0.00     0.020 C   
ATOM     30  C16 UNL     1      -3.267  -5.117   2.357  1.00  0.00     0.009 C   
ENDBRANCH  21  22
ENDBRANCH  18  21
ENDBRANCH   1  15
BRANCH   1  31
ATOM     31  C19 UNL     1       1.936   2.210  -0.937  1.00  0.00     0.043 C   
ATOM     32  C20 UNL     1       1.486   2.862  -2.259  1.00  0.00     0.010 C   
ATOM     33  C24 UNL     1       3.063   3.041  -0.292  1.00  0.00     0.010 C   
ATOM     34  C21 UNL     1       2.661   3.053  -3.216  1.00  0.00     0.001 C   
ATOM     35  C23 UNL     1       4.236   3.233  -1.254  1.00  0.00     0.001 C   
ATOM     36  C22 UNL     1       3.785   3.857  -2.571  1.00  0.00     0.000 C   
ENDBRANCH   1  31
TORSDOF 7
