REMARK SMILES Cc1ccc(CCn2cc([C@H](CC(C)C)[NH2+]Cc3ccc4c(c3)OCO4)nn2)nc1
REMARK SMILES IDX 8 1 9 2 10 3 27 4 28 5 7 7 6 8 5 9 2 10 3 11 30 12 4 13
REMARK SMILES IDX 29 14 1 15 11 16 12 17 13 18 14 19 15 20 16 21 17 24 18 25
REMARK SMILES IDX 19 26 23 27 20 28 22 29 21 30 24 31 26 32 25 33
REMARK H PARENT 9 6 16 22 16 23
ROOT
ATOM     1   N1  UNL     1      -0.018   2.172   1.912  1.00  0.00    -0.212 N   
ATOM     2   C8  UNL     1       0.152   2.453   0.586  1.00  0.00     0.045 A   
ATOM     3   C9  UNL     1      -0.774   1.654  -0.042  1.00  0.00     0.127 A   
ATOM     4   N3  UNL     1      -1.482   0.953   0.901  1.00  0.00    -0.132 NA  
ATOM     5   N4  UNL     1      -1.013   1.283   2.094  1.00  0.00    -0.076 NA  
ATOM     6   H10 UNL     1       0.922   3.127   0.235  1.00  0.00     0.083 HD  
ENDROOT
BRANCH   1   7
ATOM     7   C7  UNL     1       0.746   2.668   3.037  1.00  0.00     0.140 C   
BRANCH   7   8
ATOM     8   C6  UNL     1       1.585   1.584   3.713  1.00  0.00     0.077 C   
BRANCH   8   9
ATOM     9   C5  UNL     1       2.661   0.984   2.837  1.00  0.00     0.042 A   
ATOM     10  C2  UNL     1       4.714  -0.043   1.301  1.00  0.00    -0.033 A   
ATOM     11  C3  UNL     1       4.260  -0.755   2.409  1.00  0.00     0.007 A   
ATOM     12  C23 UNL     1       4.107   1.178   1.038  1.00  0.00     0.114 A   
ATOM     13  C4  UNL     1       3.229  -0.238   3.189  1.00  0.00     0.024 A   
ATOM     14  N5  UNL     1       3.086   1.694   1.763  1.00  0.00    -0.261 NA  
ATOM     15  C1  UNL     1       5.863  -0.538   0.481  1.00  0.00     0.046 C   
ENDBRANCH   8   9
ENDBRANCH   7   8
ENDBRANCH   1   7
BRANCH   3  16
ATOM     16  C10 UNL     1      -1.016   1.384  -1.487  1.00  0.00     0.114 C   
BRANCH  16  17
ATOM     17  C11 UNL     1      -2.296   2.054  -2.015  1.00  0.00     0.064 C   
BRANCH  17  18
ATOM     18  C12 UNL     1      -2.294   3.597  -1.970  1.00  0.00    -0.012 C   
ATOM     19  C13 UNL     1      -3.645   4.129  -2.457  1.00  0.00     0.007 C   
ATOM     20  C14 UNL     1      -1.169   4.204  -2.809  1.00  0.00     0.007 C   
ENDBRANCH  17  18
ENDBRANCH  16  17
BRANCH  16  21
ATOM     21  N2  UNL     1      -1.175  -0.105  -1.691  1.00  0.00     0.249 N   
ATOM     22  H21 UNL     1      -1.591  -0.316  -2.603  1.00  0.00     0.199 HD  
ATOM     23  H22 UNL     1      -1.848  -0.429  -0.979  1.00  0.00     0.199 HD  
BRANCH  21  24
ATOM     24  C15 UNL     1       0.073  -0.902  -1.519  1.00  0.00     0.164 C   
BRANCH  24  25
ATOM     25  C16 UNL     1      -0.217  -2.368  -1.667  1.00  0.00    -0.002 A   
ATOM     26  C17 UNL     1      -0.613  -3.130  -0.541  1.00  0.00     0.012 A   
ATOM     27  C21 UNL     1      -0.153  -2.980  -2.930  1.00  0.00     0.045 A   
ATOM     28  C18 UNL     1      -0.928  -4.487  -0.667  1.00  0.00     0.037 A   
ATOM     29  C20 UNL     1      -0.471  -4.320  -3.019  1.00  0.00     0.109 A   
ATOM     30  C19 UNL     1      -0.847  -5.052  -1.920  1.00  0.00     0.108 A   
ATOM     31  O1  UNL     1      -0.460  -5.060  -4.158  1.00  0.00    -0.316 OA  
ATOM     32  O2  UNL     1      -1.117  -6.347  -2.229  1.00  0.00    -0.316 OA  
ATOM     33  C22 UNL     1      -0.854  -6.354  -3.648  1.00  0.00     0.337 C   
ENDBRANCH  24  25
ENDBRANCH  21  24
ENDBRANCH  16  21
ENDBRANCH   3  16
TORSDOF 9
