REMARK SMILES COc1cccc(C)c1CCn1cc([C@H](CC(C)C)[NH2+]Cc2ccc3c(c2)OCO3)nn1
REMARK SMILES IDX 12 1 13 2 14 3 31 4 32 5 11 7 10 8 9 9 3 10 4 11 5 12 7 13
REMARK SMILES IDX 6 14 8 15 2 16 1 17 15 18 16 19 17 20 18 21 19 22 20 23
REMARK SMILES IDX 21 26 22 27 23 28 27 29 24 30 26 31 25 32 28 33 30 34 29 35
REMARK H PARENT 13 6 20 24 20 25
ROOT
ATOM     1   N1  UNL     1      -2.736   0.883  -1.115  1.00  0.00    -0.212 N   
ATOM     2   C11 UNL     1      -1.861   0.954  -0.070  1.00  0.00     0.045 A   
ATOM     3   C12 UNL     1      -1.129   2.090  -0.333  1.00  0.00     0.127 A   
ATOM     4   N3  UNL     1      -1.595   2.673  -1.484  1.00  0.00    -0.132 NA  
ATOM     5   N4  UNL     1      -2.577   1.924  -1.954  1.00  0.00    -0.076 NA  
ATOM     6   H14 UNL     1      -1.819   0.201   0.705  1.00  0.00     0.083 HD  
ENDROOT
BRANCH   1   7
ATOM     7   C10 UNL     1      -3.750  -0.118  -1.367  1.00  0.00     0.139 C   
BRANCH   7   8
ATOM     8   C9  UNL     1      -3.276  -1.230  -2.304  1.00  0.00     0.060 C   
BRANCH   8   9
ATOM     9   C8  UNL     1      -2.336  -2.218  -1.640  1.00  0.00    -0.013 A   
ATOM     10  C2  UNL     1      -0.941  -2.074  -1.766  1.00  0.00     0.078 A   
ATOM     11  C3  UNL     1      -0.057  -2.942  -1.120  1.00  0.00     0.034 A   
ATOM     12  C4  UNL     1      -0.552  -3.996  -0.364  1.00  0.00     0.003 A   
ATOM     13  C6  UNL     1      -2.831  -3.298  -0.870  1.00  0.00    -0.045 A   
ATOM     14  C5  UNL     1      -1.928  -4.176  -0.246  1.00  0.00     0.004 A   
ATOM     15  C7  UNL     1      -4.305  -3.582  -0.733  1.00  0.00     0.045 C   
BRANCH  10  16
ATOM     16  O1  UNL     1      -0.406  -1.028  -2.477  1.00  0.00    -0.349 OA  
ATOM     17  C1  UNL     1      -0.025  -1.475  -3.783  1.00  0.00     0.203 C   
ENDBRANCH  10  16
ENDBRANCH   8   9
ENDBRANCH   7   8
ENDBRANCH   1   7
BRANCH   3  18
ATOM     18  C13 UNL     1       0.054   2.679   0.355  1.00  0.00     0.114 C   
BRANCH  18  19
ATOM     19  C14 UNL     1      -0.319   3.876   1.250  1.00  0.00     0.064 C   
BRANCH  19  20
ATOM     20  C15 UNL     1      -1.212   3.526   2.461  1.00  0.00    -0.012 C   
ATOM     21  C16 UNL     1      -0.535   2.548   3.421  1.00  0.00     0.007 C   
ATOM     22  C17 UNL     1      -1.590   4.805   3.213  1.00  0.00     0.007 C   
ENDBRANCH  19  20
ENDBRANCH  18  19
BRANCH  18  23
ATOM     23  N2  UNL     1       1.037   3.187  -0.680  1.00  0.00     0.249 N   
ATOM     24  H25 UNL     1       1.746   3.779  -0.239  1.00  0.00     0.199 HD  
ATOM     25  H26 UNL     1       0.490   3.779  -1.321  1.00  0.00     0.199 HD  
BRANCH  23  26
ATOM     26  C18 UNL     1       1.710   2.143  -1.511  1.00  0.00     0.164 C   
BRANCH  26  27
ATOM     27  C19 UNL     1       2.723   1.351  -0.732  1.00  0.00    -0.002 A   
ATOM     28  C20 UNL     1       4.016   1.875  -0.492  1.00  0.00     0.012 A   
ATOM     29  C24 UNL     1       2.377   0.096  -0.203  1.00  0.00     0.045 A   
ATOM     30  C21 UNL     1       4.951   1.160   0.265  1.00  0.00     0.037 A   
ATOM     31  C23 UNL     1       3.319  -0.581   0.542  1.00  0.00     0.109 A   
ATOM     32  C22 UNL     1       4.570  -0.064   0.770  1.00  0.00     0.108 A   
ATOM     33  O2  UNL     1       3.142  -1.794   1.127  1.00  0.00    -0.316 OA  
ATOM     34  O3  UNL     1       5.341  -0.889   1.524  1.00  0.00    -0.316 OA  
ATOM     35  C25 UNL     1       4.437  -1.994   1.739  1.00  0.00     0.337 C   
ENDBRANCH  26  27
ENDBRANCH  23  26
ENDBRANCH  18  23
ENDBRANCH   3  18
TORSDOF 10
