REMARK SMILES CC(C)C[C@H]([NH2+]Cc1ccc2c(c1)OCO2)c1cn(C[C@H](O)c2ccc(F)cc2F)nn1
REMARK SMILES IDX 17 1 18 2 19 3 31 4 32 5 5 7 4 8 2 9 1 10 3 11 6 12 7 15
REMARK SMILES IDX 8 16 9 17 13 18 10 19 12 20 11 21 14 22 16 23 15 24 20 25
REMARK SMILES IDX 21 26 22 27 23 29 24 30 29 31 25 32 28 33 26 34 30 35 27 36
REMARK H PARENT 18 6 6 13 6 14 22 28
ROOT
ATOM     1   C14 UNL     1      -0.470  -0.403   1.240  1.00  0.00     0.127 A   
ATOM     2   C15 UNL     1      -0.488   0.958   1.458  1.00  0.00     0.045 A   
ATOM     3   N2  UNL     1       0.138   1.106   2.664  1.00  0.00    -0.209 N   
ATOM     4   N3  UNL     1       0.535  -0.084   3.149  1.00  0.00    -0.076 NA  
ATOM     5   N4  UNL     1       0.157  -1.018   2.292  1.00  0.00    -0.132 NA  
ATOM     6   H20 UNL     1      -0.872   1.797   0.895  1.00  0.00     0.083 HD  
ENDROOT
BRANCH   1   7
ATOM     7   C5  UNL     1      -0.959  -1.226   0.096  1.00  0.00     0.114 C   
BRANCH   7   8
ATOM     8   C4  UNL     1      -2.378  -1.782   0.331  1.00  0.00     0.064 C   
BRANCH   8   9
ATOM     9   C2  UNL     1      -3.494  -0.720   0.445  1.00  0.00    -0.012 C   
ATOM     10  C1  UNL     1      -3.620   0.132  -0.819  1.00  0.00     0.007 C   
ATOM     11  C3  UNL     1      -4.831  -1.408   0.737  1.00  0.00     0.007 C   
ENDBRANCH   8   9
ENDBRANCH   7   8
BRANCH   7  12
ATOM     12  N1  UNL     1      -0.056  -2.430  -0.111  1.00  0.00     0.249 N   
ATOM     13  H11 UNL     1       0.007  -2.901   0.803  1.00  0.00     0.199 HD  
ATOM     14  H12 UNL     1      -0.490  -3.086  -0.766  1.00  0.00     0.199 HD  
BRANCH  12  15
ATOM     15  C6  UNL     1       1.343  -2.150  -0.554  1.00  0.00     0.164 C   
BRANCH  15  16
ATOM     16  C7  UNL     1       1.413  -1.502  -1.908  1.00  0.00    -0.002 A   
ATOM     17  C8  UNL     1       1.153  -2.247  -3.082  1.00  0.00     0.012 A   
ATOM     18  C12 UNL     1       1.706  -0.131  -2.010  1.00  0.00     0.045 A   
ATOM     19  C9  UNL     1       1.178  -1.635  -4.340  1.00  0.00     0.037 A   
ATOM     20  C11 UNL     1       1.722   0.442  -3.264  1.00  0.00     0.109 A   
ATOM     21  C10 UNL     1       1.464  -0.289  -4.397  1.00  0.00     0.108 A   
ATOM     22  O1  UNL     1       1.978   1.748  -3.533  1.00  0.00    -0.316 OA  
ATOM     23  O2  UNL     1       1.528   0.466  -5.524  1.00  0.00    -0.316 OA  
ATOM     24  C13 UNL     1       1.882   1.754  -4.976  1.00  0.00     0.337 C   
ENDBRANCH  15  16
ENDBRANCH  12  15
ENDBRANCH   7  12
ENDBRANCH   1   7
BRANCH   3  25
ATOM     25  C16 UNL     1       0.370   2.318   3.416  1.00  0.00     0.170 C   
BRANCH  25  26
ATOM     26  C17 UNL     1       1.788   2.871   3.239  1.00  0.00     0.167 C   
BRANCH  26  27
ATOM     27  O3  UNL     1       2.034   3.815   4.287  1.00  0.00    -0.387 OA  
ATOM     28  H24 UNL     1       2.946   4.141   4.178  1.00  0.00     0.211 HD  
ENDBRANCH  26  27
BRANCH  26  29
ATOM     29  C18 UNL     1       1.987   3.557   1.904  1.00  0.00     0.018 A   
ATOM     30  C19 UNL     1       1.574   4.884   1.692  1.00  0.00     0.012 A   
ATOM     31  C23 UNL     1       2.571   2.865   0.835  1.00  0.00     0.131 A   
ATOM     32  C20 UNL     1       1.760   5.492   0.449  1.00  0.00     0.040 A   
ATOM     33  C22 UNL     1       2.763   3.465  -0.404  1.00  0.00     0.078 A   
ATOM     34  C21 UNL     1       2.354   4.778  -0.585  1.00  0.00     0.126 A   
ATOM     35  F2  UNL     1       2.932   1.583   0.991  1.00  0.00    -0.207 F   
ATOM     36  F1  UNL     1       2.525   5.362  -1.778  1.00  0.00    -0.207 F   
ENDBRANCH  26  29
ENDBRANCH  25  26
ENDBRANCH   3  25
TORSDOF 10
