REMARK SMILES CC(C)C[C@H]([NH2+]Cc1ccc2c(c1)OCO2)c1cn(C[C@@H](O)c2ccc(F)cc2F)nn1
REMARK SMILES IDX 17 1 18 2 19 3 31 4 32 5 5 7 4 8 2 9 1 10 3 11 6 12 7 15
REMARK SMILES IDX 8 16 9 17 13 18 10 19 12 20 11 21 14 22 16 23 15 24 20 25
REMARK SMILES IDX 21 26 22 27 23 29 24 30 29 31 25 32 28 33 26 34 30 35 27 36
REMARK H PARENT 18 6 6 13 6 14 22 28
ROOT
ATOM     1   C14 UNL     1       0.284   1.592   0.807  1.00  0.00     0.127 A   
ATOM     2   C15 UNL     1       1.062   0.471   0.989  1.00  0.00     0.045 A   
ATOM     3   N2  UNL     1       0.760   0.063   2.257  1.00  0.00    -0.209 N   
ATOM     4   N3  UNL     1      -0.163   0.868   2.816  1.00  0.00    -0.076 NA  
ATOM     5   N4  UNL     1      -0.456   1.816   1.941  1.00  0.00    -0.132 NA  
ATOM     6   H20 UNL     1       1.767  -0.060   0.363  1.00  0.00     0.083 HD  
ENDROOT
BRANCH   1   7
ATOM     7   C5  UNL     1       0.108   2.488  -0.372  1.00  0.00     0.114 C   
BRANCH   7   8
ATOM     8   C4  UNL     1       0.986   3.754  -0.291  1.00  0.00     0.064 C   
BRANCH   8   9
ATOM     9   C2  UNL     1       2.509   3.502  -0.362  1.00  0.00    -0.012 C   
ATOM     10  C1  UNL     1       3.256   4.830  -0.204  1.00  0.00     0.007 C   
ATOM     11  C3  UNL     1       2.929   2.828  -1.671  1.00  0.00     0.007 C   
ENDBRANCH   8   9
ENDBRANCH   7   8
BRANCH   7  12
ATOM     12  N1  UNL     1      -1.332   2.962  -0.449  1.00  0.00     0.249 N   
ATOM     13  H11 UNL     1      -1.412   3.745  -1.104  1.00  0.00     0.199 HD  
ATOM     14  H12 UNL     1      -1.568   3.319   0.489  1.00  0.00     0.199 HD  
BRANCH  12  15
ATOM     15  C6  UNL     1      -2.349   1.924  -0.798  1.00  0.00     0.164 C   
BRANCH  15  16
ATOM     16  C7  UNL     1      -2.173   1.377  -2.188  1.00  0.00    -0.002 A   
ATOM     17  C8  UNL     1      -1.721   0.048  -2.380  1.00  0.00     0.012 A   
ATOM     18  C12 UNL     1      -2.423   2.189  -3.308  1.00  0.00     0.045 A   
ATOM     19  C9  UNL     1      -1.514  -0.464  -3.667  1.00  0.00     0.037 A   
ATOM     20  C11 UNL     1      -2.202   1.655  -4.562  1.00  0.00     0.109 A   
ATOM     21  C10 UNL     1      -1.761   0.366  -4.737  1.00  0.00     0.108 A   
ATOM     22  O1  UNL     1      -2.377   2.308  -5.741  1.00  0.00    -0.316 OA  
ATOM     23  O2  UNL     1      -1.605   0.044  -6.049  1.00  0.00    -0.316 OA  
ATOM     24  C13 UNL     1      -2.025   1.269  -6.686  1.00  0.00     0.337 C   
ENDBRANCH  15  16
ENDBRANCH  12  15
ENDBRANCH   7  12
ENDBRANCH   1   7
BRANCH   3  25
ATOM     25  C16 UNL     1       1.311  -1.056   2.997  1.00  0.00     0.170 C   
BRANCH  25  26
ATOM     26  C17 UNL     1       0.510  -2.338   2.756  1.00  0.00     0.167 C   
BRANCH  26  27
ATOM     27  O3  UNL     1       0.717  -2.789   1.406  1.00  0.00    -0.387 OA  
ATOM     28  H24 UNL     1       0.465  -3.731   1.375  1.00  0.00     0.211 HD  
ENDBRANCH  26  27
BRANCH  26  29
ATOM     29  C18 UNL     1       0.919  -3.429   3.718  1.00  0.00     0.018 A   
ATOM     30  C19 UNL     1       2.135  -4.122   3.578  1.00  0.00     0.012 A   
ATOM     31  C23 UNL     1       0.088  -3.748   4.802  1.00  0.00     0.131 A   
ATOM     32  C20 UNL     1       2.489  -5.110   4.498  1.00  0.00     0.040 A   
ATOM     33  C22 UNL     1       0.430  -4.733   5.718  1.00  0.00     0.078 A   
ATOM     34  C21 UNL     1       1.632  -5.408   5.555  1.00  0.00     0.126 A   
ATOM     35  F2  UNL     1      -1.065  -3.083   4.971  1.00  0.00    -0.207 F   
ATOM     36  F1  UNL     1       1.979  -6.359   6.431  1.00  0.00    -0.207 F   
ENDBRANCH  26  29
ENDBRANCH  25  26
ENDBRANCH   3  25
TORSDOF 10
