REMARK SMILES Cc1ccnc(CCn2cc([C@@H]([NH2+]Cc3ccc4c(c3)OCO4)C(C)(C)C)nn2)c1
REMARK SMILES IDX 9 1 10 2 11 3 28 4 29 5 8 7 7 8 6 9 2 10 3 11 30 12 4 13
REMARK SMILES IDX 5 14 1 15 12 16 13 17 14 20 15 21 16 22 20 23 17 24 19 25
REMARK SMILES IDX 18 26 21 27 23 28 22 29 24 30 25 31 26 32 27 33
REMARK H PARENT 10 6 13 18 13 19
ROOT
ATOM     1   N2  UNL     1       2.238   0.994  -1.681  1.00  0.00    -0.212 N   
ATOM     2   C8  UNL     1       1.636   0.617  -0.516  1.00  0.00     0.045 A   
ATOM     3   C9  UNL     1       1.889  -0.734  -0.435  1.00  0.00     0.127 A   
ATOM     4   N4  UNL     1       2.654  -1.114  -1.509  1.00  0.00    -0.132 NA  
ATOM     5   N5  UNL     1       2.859  -0.049  -2.264  1.00  0.00    -0.076 NA  
ATOM     6   H10 UNL     1       1.061   1.306   0.088  1.00  0.00     0.083 HD  
ENDROOT
BRANCH   1   7
ATOM     7   C7  UNL     1       2.259   2.301  -2.306  1.00  0.00     0.140 C   
BRANCH   7   8
ATOM     8   C6  UNL     1       1.079   2.523  -3.247  1.00  0.00     0.077 C   
BRANCH   8   9
ATOM     9   C5  UNL     1      -0.166   2.935  -2.500  1.00  0.00     0.042 A   
ATOM     10  C2  UNL     1      -1.630   4.654  -1.655  1.00  0.00    -0.048 A   
ATOM     11  C3  UNL     1      -2.429   3.647  -1.119  1.00  0.00     0.023 A   
ATOM     12  C23 UNL     1      -0.481   4.287  -2.360  1.00  0.00     0.027 A   
ATOM     13  C4  UNL     1      -2.042   2.330  -1.300  1.00  0.00     0.111 A   
ATOM     14  N1  UNL     1      -0.922   1.949  -1.958  1.00  0.00    -0.261 NA  
ATOM     15  C1  UNL     1      -1.991   6.101  -1.497  1.00  0.00     0.044 C   
ENDBRANCH   8   9
ENDBRANCH   7   8
ENDBRANCH   1   7
BRANCH   3  16
ATOM     16  C10 UNL     1       1.388  -1.774   0.516  1.00  0.00     0.120 C   
BRANCH  16  17
ATOM     17  N3  UNL     1       1.115  -3.048  -0.264  1.00  0.00     0.250 N   
ATOM     18  H12 UNL     1       1.958  -3.213  -0.832  1.00  0.00     0.199 HD  
ATOM     19  H13 UNL     1       1.000  -3.850   0.357  1.00  0.00     0.199 HD  
BRANCH  17  20
ATOM     20  C11 UNL     1      -0.038  -3.003  -1.214  1.00  0.00     0.164 C   
BRANCH  20  21
ATOM     21  C12 UNL     1      -1.365  -2.919  -0.514  1.00  0.00    -0.002 A   
ATOM     22  C13 UNL     1      -1.894  -4.043   0.165  1.00  0.00     0.012 A   
ATOM     23  C17 UNL     1      -2.078  -1.707  -0.508  1.00  0.00     0.045 A   
ATOM     24  C14 UNL     1      -3.110  -3.959   0.850  1.00  0.00     0.037 A   
ATOM     25  C16 UNL     1      -3.273  -1.658   0.178  1.00  0.00     0.109 A   
ATOM     26  C15 UNL     1      -3.774  -2.752   0.839  1.00  0.00     0.108 A   
ATOM     27  O1  UNL     1      -4.078  -0.569   0.293  1.00  0.00    -0.316 OA  
ATOM     28  O2  UNL     1      -4.959  -2.492   1.448  1.00  0.00    -0.316 OA  
ATOM     29  C18 UNL     1      -5.170  -1.117   1.066  1.00  0.00     0.337 C   
ENDBRANCH  20  21
ENDBRANCH  17  20
ENDBRANCH  16  17
BRANCH  16  30
ATOM     30  C19 UNL     1       2.354  -2.067   1.718  1.00  0.00     0.010 C   
ATOM     31  C20 UNL     1       3.697  -2.678   1.271  1.00  0.00     0.017 C   
ATOM     32  C21 UNL     1       1.686  -3.042   2.716  1.00  0.00     0.017 C   
ATOM     33  C22 UNL     1       2.647  -0.763   2.494  1.00  0.00     0.017 C   
ENDBRANCH  16  30
ENDBRANCH   3  16
TORSDOF 8
