REMARK SMILES Cc1ccc(CCn2cc([C@@H]([NH2+]Cc3ccc4c(c3)OCO4)C3CCCC3)nn2)c(F)c1
REMARK SMILES IDX 8 1 9 2 10 3 28 4 29 5 7 7 6 8 5 9 2 10 3 11 32 12 4 13
REMARK SMILES IDX 30 14 1 15 31 16 11 17 12 18 13 21 14 22 15 23 19 24 16 25
REMARK SMILES IDX 18 26 17 27 20 28 22 29 21 30 23 31 24 32 27 33 25 34 26 35
REMARK H PARENT 9 6 12 19 12 20
ROOT
ATOM     1   N1  UNL     1      -2.304  -1.766   1.940  1.00  0.00    -0.212 N   
ATOM     2   C8  UNL     1      -1.044  -1.303   1.687  1.00  0.00     0.045 A   
ATOM     3   C9  UNL     1      -1.100   0.021   2.059  1.00  0.00     0.127 A   
ATOM     4   N3  UNL     1      -2.347   0.298   2.561  1.00  0.00    -0.132 NA  
ATOM     5   N4  UNL     1      -3.073  -0.804   2.482  1.00  0.00    -0.076 NA  
ATOM     6   H10 UNL     1      -0.277  -1.921   1.242  1.00  0.00     0.083 HD  
ENDROOT
BRANCH   1   7
ATOM     7   C7  UNL     1      -2.853  -3.078   1.669  1.00  0.00     0.139 C   
BRANCH   7   8
ATOM     8   C6  UNL     1      -3.596  -3.143   0.334  1.00  0.00     0.060 C   
BRANCH   8   9
ATOM     9   C5  UNL     1      -2.671  -3.208  -0.857  1.00  0.00    -0.011 A   
ATOM     10  C2  UNL     1      -0.941  -3.337  -3.084  1.00  0.00    -0.048 A   
ATOM     11  C3  UNL     1      -1.312  -4.501  -2.401  1.00  0.00     0.004 A   
ATOM     12  C25 UNL     1      -1.422  -2.106  -2.632  1.00  0.00     0.043 A   
ATOM     13  C4  UNL     1      -2.173  -4.439  -1.301  1.00  0.00     0.007 A   
ATOM     14  C24 UNL     1      -2.277  -2.050  -1.533  1.00  0.00     0.126 A   
ATOM     15  C1  UNL     1       0.002  -3.404  -4.250  1.00  0.00     0.044 C   
ATOM     16  F1  UNL     1      -2.699  -0.850  -1.109  1.00  0.00    -0.207 F   
ENDBRANCH   8   9
ENDBRANCH   7   8
ENDBRANCH   1   7
BRANCH   3  17
ATOM     17  C10 UNL     1      -0.100   1.122   1.939  1.00  0.00     0.117 C   
BRANCH  17  18
ATOM     18  N2  UNL     1      -0.809   2.434   1.704  1.00  0.00     0.249 N   
ATOM     19  H12 UNL     1      -1.576   2.466   2.391  1.00  0.00     0.199 HD  
ATOM     20  H13 UNL     1      -0.195   3.229   1.894  1.00  0.00     0.199 HD  
BRANCH  18  21
ATOM     21  C11 UNL     1      -1.437   2.609   0.359  1.00  0.00     0.164 C   
BRANCH  21  22
ATOM     22  C12 UNL     1      -0.421   2.771  -0.738  1.00  0.00    -0.002 A   
ATOM     23  C13 UNL     1       0.291   3.985  -0.889  1.00  0.00     0.012 A   
ATOM     24  C17 UNL     1      -0.149   1.697  -1.603  1.00  0.00     0.045 A   
ATOM     25  C14 UNL     1       1.262   4.126  -1.887  1.00  0.00     0.037 A   
ATOM     26  C16 UNL     1       0.816   1.868  -2.572  1.00  0.00     0.109 A   
ATOM     27  C15 UNL     1       1.503   3.048  -2.709  1.00  0.00     0.108 A   
ATOM     28  O1  UNL     1       1.204   0.930  -3.476  1.00  0.00    -0.316 OA  
ATOM     29  O2  UNL     1       2.409   3.005  -3.721  1.00  0.00    -0.316 OA  
ATOM     30  C18 UNL     1       2.197   1.669  -4.225  1.00  0.00     0.337 C   
ENDBRANCH  21  22
ENDBRANCH  18  21
ENDBRANCH  17  18
BRANCH  17  31
ATOM     31  C19 UNL     1       0.808   1.204   3.182  1.00  0.00     0.043 C   
ATOM     32  C20 UNL     1       0.167   1.736   4.465  1.00  0.00     0.010 C   
ATOM     33  C23 UNL     1       2.030   2.115   3.016  1.00  0.00     0.010 C   
ATOM     34  C21 UNL     1       1.367   1.978   5.370  1.00  0.00     0.001 C   
ATOM     35  C22 UNL     1       2.488   2.437   4.439  1.00  0.00     0.001 C   
ENDBRANCH  17  31
ENDBRANCH   3  17
TORSDOF 8
