REMARK SMILES CC(C)[C@H]([NH2+]Cc1ccc2c(c1)OCO2)c1cn(CCc2c3c(nn2C)CCC3)nn1
REMARK SMILES IDX 16 1 17 2 18 3 30 4 31 5 4 7 2 8 1 9 3 10 5 11 6 14 7 15
REMARK SMILES IDX 8 16 12 17 9 18 11 19 10 20 13 21 15 22 14 23 19 24 20 25
REMARK SMILES IDX 21 26 22 27 25 28 23 29 29 30 24 31 27 32 28 33 26 34
REMARK H PARENT 17 6 5 12 5 13
ROOT
ATOM     1   C13 UNL     1       2.235  -0.828   0.221  1.00  0.00     0.127 A   
ATOM     2   C14 UNL     1       2.091  -1.785   1.204  1.00  0.00     0.045 A   
ATOM     3   N2  UNL     1       2.235  -2.969   0.528  1.00  0.00    -0.212 N   
ATOM     4   N5  UNL     1       2.623  -2.753  -0.739  1.00  0.00    -0.076 NA  
ATOM     5   N6  UNL     1       2.619  -1.444  -0.942  1.00  0.00    -0.132 NA  
ATOM     6   H18 UNL     1       1.757  -1.753   2.231  1.00  0.00     0.083 HD  
ENDROOT
BRANCH   1   7
ATOM     7   C4  UNL     1       1.893   0.632   0.213  1.00  0.00     0.117 C   
BRANCH   7   8
ATOM     8   C2  UNL     1       2.882   1.534   0.995  1.00  0.00     0.037 C   
ATOM     9   C1  UNL     1       2.902   1.313   2.511  1.00  0.00     0.014 C   
ATOM     10  C3  UNL     1       4.306   1.413   0.437  1.00  0.00     0.014 C   
ENDBRANCH   7   8
BRANCH   7  11
ATOM     11  N1  UNL     1       0.476   0.829   0.696  1.00  0.00     0.249 N   
ATOM     12  H9  UNL     1      -0.123   0.087   0.269  1.00  0.00     0.199 HD  
ATOM     13  H10 UNL     1       0.408   0.602   1.690  1.00  0.00     0.199 HD  
BRANCH  11  14
ATOM     14  C5  UNL     1      -0.203   2.118   0.414  1.00  0.00     0.164 C   
BRANCH  14  15
ATOM     15  C6  UNL     1      -0.355   2.414  -1.051  1.00  0.00    -0.002 A   
ATOM     16  C7  UNL     1       0.456   3.394  -1.673  1.00  0.00     0.012 A   
ATOM     17  C11 UNL     1      -1.284   1.694  -1.824  1.00  0.00     0.045 A   
ATOM     18  C8  UNL     1       0.350   3.649  -3.045  1.00  0.00     0.037 A   
ATOM     19  C10 UNL     1      -1.359   1.968  -3.174  1.00  0.00     0.109 A   
ATOM     20  C9  UNL     1      -0.564   2.916  -3.768  1.00  0.00     0.108 A   
ATOM     21  O1  UNL     1      -2.190   1.358  -4.060  1.00  0.00    -0.316 OA  
ATOM     22  O2  UNL     1      -0.797   3.026  -5.102  1.00  0.00    -0.316 OA  
ATOM     23  C12 UNL     1      -1.845   2.052  -5.280  1.00  0.00     0.337 C   
ENDBRANCH  14  15
ENDBRANCH  11  14
ENDBRANCH   7  11
ENDBRANCH   1   7
BRANCH   3  24
ATOM     24  C15 UNL     1       1.692  -4.257   0.918  1.00  0.00     0.140 C   
BRANCH  24  25
ATOM     25  C16 UNL     1       0.288  -4.503   0.329  1.00  0.00     0.075 C   
BRANCH  25  26
ATOM     26  C17 UNL     1      -0.634  -3.347   0.580  1.00  0.00     0.034 A   
ATOM     27  C18 UNL     1      -1.338  -2.985   1.698  1.00  0.00    -0.006 A   
ATOM     28  N4  UNL     1      -0.896  -2.323  -0.324  1.00  0.00    -0.232 N   
ATOM     29  C19 UNL     1      -1.800  -1.694   1.456  1.00  0.00     0.064 A   
ATOM     30  C23 UNL     1      -1.672  -3.449   3.058  1.00  0.00     0.039 C   
ATOM     31  N3  UNL     1      -1.389  -1.193   0.295  1.00  0.00    -0.186 NA  
ATOM     32  C21 UNL     1      -2.514  -1.112   2.609  1.00  0.00     0.058 C   
ATOM     33  C22 UNL     1      -2.133  -2.119   3.747  1.00  0.00     0.011 C   
ATOM     34  C20 UNL     1      -0.644  -2.275  -1.748  1.00  0.00     0.159 C   
ENDBRANCH  25  26
ENDBRANCH  24  25
ENDBRANCH   3  24
TORSDOF 8
