REMARK SMILES Fc1cnc(Cl)c(Cn2cc([C@@H]([NH2+]Cc3ccc4c(c3)OCO4)C3CCCC3)nn2)c1
REMARK SMILES IDX 9 1 10 2 11 3 29 4 30 5 8 7 7 8 2 9 3 10 31 11 4 12 5 13
REMARK SMILES IDX 1 14 6 15 12 16 13 17 14 20 15 21 16 22 20 23 17 24 19 25
REMARK SMILES IDX 18 26 21 27 23 28 22 29 24 30 25 31 28 32 26 33 27 34
REMARK H PARENT 10 6 13 18 13 19
ROOT
ATOM     1   N2  UNL     1      -2.109  -0.292   2.374  1.00  0.00    -0.208 N   
ATOM     2   C6  UNL     1      -2.146  -0.191   1.011  1.00  0.00     0.046 A   
ATOM     3   C7  UNL     1      -1.216  -1.113   0.582  1.00  0.00     0.127 A   
ATOM     4   N4  UNL     1      -0.675  -1.745   1.671  1.00  0.00    -0.132 NA  
ATOM     5   N5  UNL     1      -1.230  -1.238   2.760  1.00  0.00    -0.076 NA  
ATOM     6   H4  UNL     1      -2.787   0.511   0.495  1.00  0.00     0.083 HD  
ENDROOT
BRANCH   1   7
ATOM     7   C5  UNL     1      -2.857   0.474   3.358  1.00  0.00     0.172 C   
BRANCH   7   8
ATOM     8   C4  UNL     1      -1.953   1.347   4.183  1.00  0.00     0.012 A   
ATOM     9   C1  UNL     1      -0.767   1.782   6.240  1.00  0.00     0.141 A   
ATOM     10  C2  UNL     1      -0.243   2.920   5.658  1.00  0.00     0.152 A   
ATOM     11  C22 UNL     1      -1.627   0.983   5.498  1.00  0.00     0.049 A   
ATOM     12  N1  UNL     1      -0.524   3.305   4.391  1.00  0.00    -0.241 NA  
ATOM     13  C3  UNL     1      -1.372   2.518   3.693  1.00  0.00     0.134 A   
ATOM     14  F1  UNL     1      -0.448   1.444   7.494  1.00  0.00    -0.205 F   
ATOM     15  CL1 UNL     1      -1.664   3.110   2.104  1.00  0.00    -0.062 Cl  
ENDBRANCH   7   8
ENDBRANCH   1   7
BRANCH   3  16
ATOM     16  C8  UNL     1      -0.722  -1.447  -0.787  1.00  0.00     0.117 C   
BRANCH  16  17
ATOM     17  N3  UNL     1       0.778  -1.665  -0.759  1.00  0.00     0.249 N   
ATOM     18  H6  UNL     1       0.954  -2.382  -0.041  1.00  0.00     0.199 HD  
ATOM     19  H7  UNL     1       1.101  -2.045  -1.653  1.00  0.00     0.199 HD  
BRANCH  17  20
ATOM     20  C9  UNL     1       1.617  -0.478  -0.413  1.00  0.00     0.164 C   
BRANCH  20  21
ATOM     21  C10 UNL     1       1.486   0.646  -1.402  1.00  0.00    -0.002 A   
ATOM     22  C11 UNL     1       0.863   1.859  -1.020  1.00  0.00     0.012 A   
ATOM     23  C15 UNL     1       1.960   0.497  -2.717  1.00  0.00     0.045 A   
ATOM     24  C12 UNL     1       0.703   2.905  -1.935  1.00  0.00     0.037 A   
ATOM     25  C14 UNL     1       1.784   1.548  -3.594  1.00  0.00     0.109 A   
ATOM     26  C13 UNL     1       1.173   2.717  -3.215  1.00  0.00     0.108 A   
ATOM     27  O1  UNL     1       2.176   1.564  -4.895  1.00  0.00    -0.316 OA  
ATOM     28  O2  UNL     1       1.105   3.618  -4.228  1.00  0.00    -0.316 OA  
ATOM     29  C16 UNL     1       1.770   2.895  -5.287  1.00  0.00     0.337 C   
ENDBRANCH  20  21
ENDBRANCH  17  20
ENDBRANCH  16  17
BRANCH  16  30
ATOM     30  C17 UNL     1      -1.381  -2.727  -1.341  1.00  0.00     0.043 C   
ATOM     31  C18 UNL     1      -2.903  -2.622  -1.486  1.00  0.00     0.010 C   
ATOM     32  C21 UNL     1      -0.936  -3.099  -2.764  1.00  0.00     0.010 C   
ATOM     33  C19 UNL     1      -3.243  -3.804  -2.379  1.00  0.00     0.001 C   
ATOM     34  C20 UNL     1      -2.105  -3.862  -3.390  1.00  0.00     0.001 C   
ENDBRANCH  16  30
ENDBRANCH   3  16
TORSDOF 7
