REMARK SMILES COc1ccc(-n2cc([C@H](CC(C)C)[NH2+]Cc3ccc4c(c3)OCO4)nn2)cc1
REMARK SMILES IDX 7 1 8 2 9 3 26 4 27 5 6 6 3 7 4 8 29 9 5 10 28 11 2 12 1 13
REMARK SMILES IDX 10 14 11 15 12 16 13 17 14 18 15 19 16 22 17 23 18 24 22 25
REMARK SMILES IDX 19 26 21 27 20 28 23 29 25 30 24 31
REMARK H PARENT 15 20 15 21
ROOT
ATOM     1   N1  UNL     1      -1.550   0.387  -1.154  1.00  0.00    -0.181 N   
ATOM     2   C6  UNL     1      -0.197   0.654  -1.065  1.00  0.00     0.135 A   
ATOM     3   C7  UNL     1       0.418  -0.429  -1.653  1.00  0.00     0.127 A   
ATOM     4   N3  UNL     1      -0.534  -1.302  -2.096  1.00  0.00    -0.131 NA  
ATOM     5   N4  UNL     1      -1.720  -0.802  -1.791  1.00  0.00    -0.071 NA  
ENDROOT
BRANCH   1   6
ATOM     6   C5  UNL     1      -2.645   1.150  -0.679  1.00  0.00     0.058 A   
ATOM     7   C2  UNL     1      -4.845   2.638   0.249  1.00  0.00     0.075 A   
ATOM     8   C3  UNL     1      -5.037   1.423  -0.410  1.00  0.00     0.035 A   
ATOM     9   C22 UNL     1      -3.546   3.107   0.446  1.00  0.00     0.035 A   
ATOM     10  C4  UNL     1      -3.950   0.679  -0.874  1.00  0.00     0.028 A   
ATOM     11  C21 UNL     1      -2.447   2.368  -0.014  1.00  0.00     0.028 A   
BRANCH   7  12
ATOM     12  O1  UNL     1      -5.995   3.260   0.644  1.00  0.00    -0.349 OA  
ATOM     13  C1  UNL     1      -5.866   4.541   1.253  1.00  0.00     0.203 C   
ENDBRANCH   7  12
ENDBRANCH   1   6
BRANCH   3  14
ATOM     14  C8  UNL     1       1.861  -0.801  -1.785  1.00  0.00     0.114 C   
BRANCH  14  15
ATOM     15  C9  UNL     1       2.385  -0.483  -3.198  1.00  0.00     0.064 C   
BRANCH  15  16
ATOM     16  C10 UNL     1       3.902  -0.673  -3.411  1.00  0.00    -0.012 C   
ATOM     17  C11 UNL     1       4.254  -0.383  -4.874  1.00  0.00     0.007 C   
ATOM     18  C12 UNL     1       4.738   0.222  -2.495  1.00  0.00     0.007 C   
ENDBRANCH  15  16
ENDBRANCH  14  15
BRANCH  14  19
ATOM     19  N2  UNL     1       2.015  -2.284  -1.516  1.00  0.00     0.249 N   
ATOM     20  H17 UNL     1       1.105  -2.709  -1.760  1.00  0.00     0.199 HD  
ATOM     21  H18 UNL     1       2.689  -2.710  -2.157  1.00  0.00     0.199 HD  
BRANCH  19  22
ATOM     22  C13 UNL     1       2.354  -2.675  -0.117  1.00  0.00     0.164 C   
BRANCH  22  23
ATOM     23  C14 UNL     1       1.358  -2.207   0.908  1.00  0.00    -0.002 A   
ATOM     24  C15 UNL     1       0.070  -2.791   0.978  1.00  0.00     0.012 A   
ATOM     25  C19 UNL     1       1.680  -1.145   1.771  1.00  0.00     0.045 A   
ATOM     26  C16 UNL     1      -0.888  -2.316   1.881  1.00  0.00     0.037 A   
ATOM     27  C18 UNL     1       0.711  -0.700   2.647  1.00  0.00     0.109 A   
ATOM     28  C17 UNL     1      -0.537  -1.268   2.700  1.00  0.00     0.108 A   
ATOM     29  O2  UNL     1       0.853   0.326   3.526  1.00  0.00    -0.316 OA  
ATOM     30  O3  UNL     1      -1.337  -0.675   3.623  1.00  0.00    -0.316 OA  
ATOM     31  C20 UNL     1      -0.439   0.308   4.177  1.00  0.00     0.337 C   
ENDBRANCH  22  23
ENDBRANCH  19  22
ENDBRANCH  14  19
ENDBRANCH   3  14
TORSDOF 8
