REMARK SMILES O=C(c1cccs1)n1cc([C@@H]([NH2+]Cc2ccc3c(c2)OCO3)C2CCCCC2)nn1
REMARK SMILES IDX 11 1 10 2 8 3 9 4 30 5 29 6 2 7 1 8 3 9 4 10 7 11 5 12 6 13
REMARK SMILES IDX 12 14 13 17 14 18 15 19 19 20 16 21 18 22 17 23 20 24 22 25
REMARK SMILES IDX 21 26 23 27 24 28 28 29 25 30 27 31 26 32
REMARK H PARENT 12 15 12 16
ROOT
ATOM     1   C8  UNL     1       0.241  -0.155  -1.046  1.00  0.00     0.117 C   
ENDROOT
BRANCH   1   2
ATOM     2   C7  UNL     1       0.685  -1.281  -0.164  1.00  0.00     0.128 A   
ATOM     3   N1  UNL     1       1.468  -3.116   0.758  1.00  0.00    -0.143 N   
ATOM     4   C6  UNL     1       1.347  -2.450  -0.454  1.00  0.00     0.139 A   
ATOM     5   N4  UNL     1       0.852  -2.378   1.717  1.00  0.00    -0.068 NA  
ATOM     6   N3  UNL     1       0.385  -1.266   1.172  1.00  0.00    -0.131 NA  
BRANCH   3   7
ATOM     7   C1  UNL     1       2.071  -4.370   1.007  1.00  0.00     0.277 C   
ATOM     8   O1  UNL     1       2.497  -4.920  -0.009  1.00  0.00    -0.269 OA  
BRANCH   7   9
ATOM     9   C2  UNL     1       2.171  -4.969   2.339  1.00  0.00     0.077 A   
ATOM     10  C3  UNL     1       1.995  -4.433   3.603  1.00  0.00     0.021 A   
ATOM     11  S1  UNL     1       2.599  -6.636   2.445  1.00  0.00    -0.092 S   
ATOM     12  C4  UNL     1       2.196  -5.390   4.644  1.00  0.00     0.009 A   
ATOM     13  C5  UNL     1       2.529  -6.628   4.149  1.00  0.00     0.046 A   
ENDBRANCH   7   9
ENDBRANCH   3   7
ENDBRANCH   1   2
BRANCH   1  14
ATOM     14  N2  UNL     1      -1.017   0.487  -0.501  1.00  0.00     0.249 N   
ATOM     15  H6  UNL     1      -1.169   1.397  -0.947  1.00  0.00     0.199 HD  
ATOM     16  H7  UNL     1      -0.851   0.665   0.499  1.00  0.00     0.199 HD  
BRANCH  14  17
ATOM     17  C9  UNL     1      -2.272  -0.316  -0.608  1.00  0.00     0.164 C   
BRANCH  17  18
ATOM     18  C10 UNL     1      -2.732  -0.493  -2.029  1.00  0.00    -0.002 A   
ATOM     19  C11 UNL     1      -2.644  -1.760  -2.655  1.00  0.00     0.012 A   
ATOM     20  C15 UNL     1      -3.230   0.604  -2.754  1.00  0.00     0.045 A   
ATOM     21  C12 UNL     1      -3.037  -1.933  -3.987  1.00  0.00     0.037 A   
ATOM     22  C14 UNL     1      -3.606   0.399  -4.066  1.00  0.00     0.109 A   
ATOM     23  C13 UNL     1      -3.512  -0.833  -4.665  1.00  0.00     0.108 A   
ATOM     24  O2  UNL     1      -4.097   1.349  -4.903  1.00  0.00    -0.316 OA  
ATOM     25  O3  UNL     1      -3.933  -0.813  -5.956  1.00  0.00    -0.316 OA  
ATOM     26  C16 UNL     1      -4.332   0.567  -6.097  1.00  0.00     0.337 C   
ENDBRANCH  17  18
ENDBRANCH  14  17
ENDBRANCH   1  14
BRANCH   1  27
ATOM     27  C17 UNL     1       1.304   0.960  -1.241  1.00  0.00     0.043 C   
ATOM     28  C18 UNL     1       2.580   0.445  -1.926  1.00  0.00     0.010 C   
ATOM     29  C22 UNL     1       1.657   1.738   0.047  1.00  0.00     0.010 C   
ATOM     30  C19 UNL     1       3.503   1.595  -2.343  1.00  0.00     0.001 C   
ATOM     31  C21 UNL     1       3.022   2.430  -0.008  1.00  0.00     0.001 C   
ATOM     32  C20 UNL     1       3.412   2.816  -1.427  1.00  0.00     0.000 C   
ENDBRANCH   1  27
TORSDOF 7
