REMARK SMILES CNc1ccc(-n2cc([C@@H]([NH2+]Cc3ccc4c(c3)OCO4)C(C)C)nn2)cc1
REMARK SMILES IDX 7 1 8 2 9 3 25 4 26 5 6 6 3 7 4 8 28 9 5 10 27 11 2 12 1 13
REMARK SMILES IDX 10 15 11 16 12 19 13 20 14 21 18 22 15 23 17 24 16 25 19 26
REMARK SMILES IDX 21 27 20 28 22 29 23 30 24 31
REMARK H PARENT 2 14 11 17 11 18
ROOT
ATOM     1   N2  UNL     1      -2.424   1.179  -0.203  1.00  0.00    -0.181 N   
ATOM     2   C6  UNL     1      -1.728   0.839  -1.348  1.00  0.00     0.135 A   
ATOM     3   C7  UNL     1      -0.787  -0.079  -0.939  1.00  0.00     0.127 A   
ATOM     4   N4  UNL     1      -0.908  -0.270   0.407  1.00  0.00    -0.131 NA  
ATOM     5   N5  UNL     1      -1.889   0.501   0.845  1.00  0.00    -0.071 NA  
ENDROOT
BRANCH   1   6
ATOM     6   C5  UNL     1      -3.514   2.069  -0.051  1.00  0.00     0.058 A   
ATOM     7   C2  UNL     1      -5.717   3.820   0.295  1.00  0.00     0.026 A   
ATOM     8   C3  UNL     1      -5.138   3.164   1.386  1.00  0.00     0.025 A   
ATOM     9   C21 UNL     1      -5.135   3.618  -0.964  1.00  0.00     0.025 A   
ATOM     10  C4  UNL     1      -4.060   2.285   1.220  1.00  0.00     0.028 A   
ATOM     11  C20 UNL     1      -4.052   2.747  -1.146  1.00  0.00     0.028 A   
BRANCH   7  12
ATOM     12  N1  UNL     1      -6.742   4.758   0.409  1.00  0.00    -0.348 N   
ATOM     13  C1  UNL     1      -7.548   4.822   1.616  1.00  0.00     0.126 C   
ATOM     14  H4  UNL     1      -7.297   4.837  -0.439  1.00  0.00     0.146 HD  
ENDBRANCH   7  12
ENDBRANCH   1   6
BRANCH   3  15
ATOM     15  C8  UNL     1       0.266  -0.821  -1.704  1.00  0.00     0.117 C   
BRANCH  15  16
ATOM     16  N3  UNL     1       1.319  -1.365  -0.777  1.00  0.00     0.249 N   
ATOM     17  H9  UNL     1       0.828  -1.778   0.032  1.00  0.00     0.199 HD  
ATOM     18  H10 UNL     1       1.849  -2.130  -1.202  1.00  0.00     0.199 HD  
BRANCH  16  19
ATOM     19  C9  UNL     1       2.280  -0.363  -0.236  1.00  0.00     0.164 C   
BRANCH  19  20
ATOM     20  C10 UNL     1       3.260  -1.032   0.687  1.00  0.00    -0.002 A   
ATOM     21  C11 UNL     1       2.908  -1.289   2.035  1.00  0.00     0.012 A   
ATOM     22  C15 UNL     1       4.508  -1.461   0.203  1.00  0.00     0.045 A   
ATOM     23  C12 UNL     1       3.788  -1.960   2.891  1.00  0.00     0.037 A   
ATOM     24  C14 UNL     1       5.353  -2.114   1.076  1.00  0.00     0.109 A   
ATOM     25  C13 UNL     1       5.004  -2.358   2.380  1.00  0.00     0.108 A   
ATOM     26  O1  UNL     1       6.588  -2.590   0.769  1.00  0.00    -0.316 OA  
ATOM     27  O2  UNL     1       5.977  -3.018   3.061  1.00  0.00    -0.316 OA  
ATOM     28  C16 UNL     1       6.998  -3.131   2.046  1.00  0.00     0.337 C   
ENDBRANCH  19  20
ENDBRANCH  16  19
ENDBRANCH  15  16
BRANCH  15  29
ATOM     29  C17 UNL     1      -0.337  -1.968  -2.560  1.00  0.00     0.037 C   
ATOM     30  C18 UNL     1      -0.900  -3.128  -1.730  1.00  0.00     0.014 C   
ATOM     31  C19 UNL     1       0.672  -2.505  -3.582  1.00  0.00     0.014 C   
ENDBRANCH  15  29
ENDBRANCH   3  15
TORSDOF 7
