REMARK SMILES COc1ccc(-n2cc([C@H](CC(C)C)[NH2+]Cc3ccc4c(c3)OCO4)nn2)cc1F
REMARK SMILES IDX 7 1 8 2 9 3 26 4 27 5 6 6 3 7 4 8 29 9 5 10 28 11 30 12 2 13
REMARK SMILES IDX 1 14 10 15 11 16 12 17 13 18 14 19 15 20 16 23 17 24 18 25
REMARK SMILES IDX 22 26 19 27 21 28 20 29 23 30 25 31 24 32
REMARK H PARENT 15 21 15 22
ROOT
ATOM     1   N1  UNL     1      -0.381   0.663  -0.545  1.00  0.00    -0.181 N   
ATOM     2   C6  UNL     1       0.066  -0.350   0.281  1.00  0.00     0.135 A   
ATOM     3   C7  UNL     1       1.172   0.172   0.914  1.00  0.00     0.127 A   
ATOM     4   N3  UNL     1       1.342   1.470   0.525  1.00  0.00    -0.131 NA  
ATOM     5   N4  UNL     1       0.394   1.761  -0.350  1.00  0.00    -0.071 NA  
ENDROOT
BRANCH   1   6
ATOM     6   C5  UNL     1      -1.430   0.642  -1.496  1.00  0.00     0.061 A   
ATOM     7   C2  UNL     1      -3.489   0.626  -3.423  1.00  0.00     0.110 A   
ATOM     8   C3  UNL     1      -3.234  -0.511  -2.654  1.00  0.00     0.038 A   
ATOM     9   C22 UNL     1      -2.703   1.764  -3.215  1.00  0.00     0.155 A   
ATOM     10  C4  UNL     1      -2.209  -0.507  -1.695  1.00  0.00     0.029 A   
ATOM     11  C21 UNL     1      -1.685   1.784  -2.264  1.00  0.00     0.068 A   
ATOM     12  F1  UNL     1      -2.919   2.873  -3.938  1.00  0.00    -0.204 F   
BRANCH   7  13
ATOM     13  O1  UNL     1      -4.453   0.739  -4.385  1.00  0.00    -0.346 OA  
ATOM     14  C1  UNL     1      -5.313  -0.375  -4.588  1.00  0.00     0.203 C   
ENDBRANCH   7  13
ENDBRANCH   1   6
BRANCH   3  15
ATOM     15  C8  UNL     1       2.188  -0.458   1.807  1.00  0.00     0.114 C   
BRANCH  15  16
ATOM     16  C9  UNL     1       2.066   0.018   3.268  1.00  0.00     0.064 C   
BRANCH  16  17
ATOM     17  C10 UNL     1       0.730  -0.329   3.960  1.00  0.00    -0.012 C   
ATOM     18  C11 UNL     1       0.714   0.259   5.374  1.00  0.00     0.007 C   
ATOM     19  C12 UNL     1       0.481  -1.837   4.026  1.00  0.00     0.007 C   
ENDBRANCH  16  17
ENDBRANCH  15  16
BRANCH  15  20
ATOM     20  N2  UNL     1       3.581  -0.082   1.328  1.00  0.00     0.249 N   
ATOM     21  H17 UNL     1       3.502   0.873   0.943  1.00  0.00     0.199 HD  
ATOM     22  H18 UNL     1       4.225  -0.014   2.122  1.00  0.00     0.199 HD  
BRANCH  20  23
ATOM     23  C13 UNL     1       4.194  -0.964   0.289  1.00  0.00     0.164 C   
BRANCH  23  24
ATOM     24  C14 UNL     1       3.445  -0.989  -1.014  1.00  0.00    -0.002 A   
ATOM     25  C15 UNL     1       3.476   0.132  -1.879  1.00  0.00     0.012 A   
ATOM     26  C19 UNL     1       2.656  -2.102  -1.357  1.00  0.00     0.045 A   
ATOM     27  C16 UNL     1       2.717   0.157  -3.054  1.00  0.00     0.037 A   
ATOM     28  C18 UNL     1       1.914  -2.041  -2.518  1.00  0.00     0.109 A   
ATOM     29  C17 UNL     1       1.942  -0.943  -3.342  1.00  0.00     0.108 A   
ATOM     30  O2  UNL     1       1.070  -3.006  -2.969  1.00  0.00    -0.316 OA  
ATOM     31  O3  UNL     1       1.128  -1.083  -4.420  1.00  0.00    -0.316 OA  
ATOM     32  C20 UNL     1       0.613  -2.413  -4.208  1.00  0.00     0.337 C   
ENDBRANCH  23  24
ENDBRANCH  20  23
ENDBRANCH  15  20
ENDBRANCH   3  15
TORSDOF 8
