REMARK SMILES CCOc1ccc(Cn2cc([C@H](CC(C)C)[NH2+]Cc3ccc4c(c3)OCO4)nn2)cc1
REMARK SMILES IDX 9 1 10 2 11 3 28 4 29 5 8 7 7 8 4 9 5 10 31 11 6 12 30 13
REMARK SMILES IDX 3 14 2 15 1 16 12 17 13 18 14 19 15 20 16 21 17 22 18 25
REMARK SMILES IDX 19 26 20 27 24 28 21 29 23 30 22 31 25 32 27 33 26 34
REMARK H PARENT 10 6 17 23 17 24
ROOT
ATOM     1   N1  UNL     1       1.723  -1.391   2.466  1.00  0.00    -0.208 N   
ATOM     2   C8  UNL     1       2.159  -0.410   1.618  1.00  0.00     0.046 A   
ATOM     3   C9  UNL     1       1.762   0.757   2.231  1.00  0.00     0.127 A   
ATOM     4   N3  UNL     1       1.171   0.459   3.431  1.00  0.00    -0.132 NA  
ATOM     5   N4  UNL     1       1.149  -0.858   3.562  1.00  0.00    -0.076 NA  
ATOM     6   H10 UNL     1       2.624  -0.630   0.667  1.00  0.00     0.083 HD  
ENDROOT
BRANCH   1   7
ATOM     7   C7  UNL     1       1.705  -2.826   2.235  1.00  0.00     0.169 C   
BRANCH   7   8
ATOM     8   C6  UNL     1       0.565  -3.183   1.313  1.00  0.00    -0.028 A   
ATOM     9   C3  UNL     1      -1.599  -3.722  -0.411  1.00  0.00     0.075 A   
ATOM     10  C4  UNL     1      -1.807  -3.614   0.962  1.00  0.00     0.034 A   
ATOM     11  C24 UNL     1      -0.309  -3.556  -0.918  1.00  0.00     0.034 A   
ATOM     12  C5  UNL     1      -0.733  -3.345   1.818  1.00  0.00     0.008 A   
ATOM     13  C23 UNL     1       0.768  -3.295  -0.068  1.00  0.00     0.008 A   
BRANCH   9  14
ATOM     14  O1  UNL     1      -2.554  -3.958  -1.359  1.00  0.00    -0.346 OA  
BRANCH  14  15
ATOM     15  C2  UNL     1      -3.848  -4.388  -0.939  1.00  0.00     0.164 C   
ATOM     16  C1  UNL     1      -4.776  -3.197  -0.768  1.00  0.00     0.035 C   
ENDBRANCH  14  15
ENDBRANCH   9  14
ENDBRANCH   7   8
ENDBRANCH   1   7
BRANCH   3  17
ATOM     17  C10 UNL     1       1.788   2.168   1.746  1.00  0.00     0.114 C   
BRANCH  17  18
ATOM     18  C11 UNL     1       2.905   2.969   2.448  1.00  0.00     0.064 C   
BRANCH  18  19
ATOM     19  C12 UNL     1       3.073   4.439   2.010  1.00  0.00    -0.012 C   
ATOM     20  C13 UNL     1       4.231   5.076   2.784  1.00  0.00     0.007 C   
ATOM     21  C14 UNL     1       3.317   4.582   0.508  1.00  0.00     0.007 C   
ENDBRANCH  18  19
ENDBRANCH  17  18
BRANCH  17  22
ATOM     22  N2  UNL     1       0.460   2.845   1.999  1.00  0.00     0.249 N   
ATOM     23  H21 UNL     1       0.313   2.830   3.017  1.00  0.00     0.199 HD  
ATOM     24  H22 UNL     1       0.503   3.824   1.707  1.00  0.00     0.199 HD  
BRANCH  22  25
ATOM     25  C15 UNL     1      -0.745   2.213   1.374  1.00  0.00     0.164 C   
BRANCH  25  26
ATOM     26  C16 UNL     1      -0.655   2.097  -0.122  1.00  0.00    -0.002 A   
ATOM     27  C17 UNL     1      -0.699   3.251  -0.940  1.00  0.00     0.012 A   
ATOM     28  C21 UNL     1      -0.495   0.833  -0.718  1.00  0.00     0.045 A   
ATOM     29  C18 UNL     1      -0.574   3.151  -2.330  1.00  0.00     0.037 A   
ATOM     30  C20 UNL     1      -0.369   0.770  -2.089  1.00  0.00     0.109 A   
ATOM     31  C19 UNL     1      -0.407   1.896  -2.873  1.00  0.00     0.108 A   
ATOM     32  O2  UNL     1      -0.190  -0.363  -2.817  1.00  0.00    -0.316 OA  
ATOM     33  O3  UNL     1      -0.265   1.613  -4.194  1.00  0.00    -0.316 OA  
ATOM     34  C22 UNL     1      -0.179   0.172  -4.159  1.00  0.00     0.337 C   
ENDBRANCH  25  26
ENDBRANCH  22  25
ENDBRANCH  17  22
ENDBRANCH   3  17
TORSDOF 10
