REMARK SMILES CC(C)[C@H]([NH2+]Cc1ccc2c(c1)OCO2)c1cn(Cc2cnc[nH]2)nn1
REMARK SMILES IDX 16 1 17 2 18 3 25 4 26 5 4 7 2 8 1 9 3 10 5 11 6 14 7 15
REMARK SMILES IDX 8 16 12 17 9 18 11 19 10 20 13 21 15 22 14 23 19 24 20 25
REMARK SMILES IDX 21 26 24 27 22 28 23 29
REMARK H PARENT 17 6 5 12 5 13 24 30
ROOT
ATOM     1   C13 UNL     1      -1.488   0.045   0.590  1.00  0.00     0.127 A   
ATOM     2   C14 UNL     1      -1.438  -0.955  -0.356  1.00  0.00     0.046 A   
ATOM     3   N2  UNL     1      -2.375  -0.583  -1.279  1.00  0.00    -0.206 N   
ATOM     4   N5  UNL     1      -2.971   0.573  -0.923  1.00  0.00    -0.076 NA  
ATOM     5   N6  UNL     1      -2.436   0.967   0.221  1.00  0.00    -0.132 NA  
ATOM     6   H18 UNL     1      -0.828  -1.840  -0.473  1.00  0.00     0.083 HD  
ENDROOT
BRANCH   1   7
ATOM     7   C4  UNL     1      -0.651   0.289   1.803  1.00  0.00     0.117 C   
BRANCH   7   8
ATOM     8   C2  UNL     1      -1.292  -0.203   3.128  1.00  0.00     0.037 C   
ATOM     9   C1  UNL     1      -2.635   0.452   3.468  1.00  0.00     0.014 C   
ATOM     10  C3  UNL     1      -1.443  -1.729   3.145  1.00  0.00     0.014 C   
ENDBRANCH   7   8
BRANCH   7  11
ATOM     11  N1  UNL     1      -0.342   1.766   1.939  1.00  0.00     0.249 N   
ATOM     12  H9  UNL     1       0.054   1.959   2.862  1.00  0.00     0.199 HD  
ATOM     13  H10 UNL     1      -1.244   2.258   1.878  1.00  0.00     0.199 HD  
BRANCH  11  14
ATOM     14  C5  UNL     1       0.543   2.357   0.889  1.00  0.00     0.164 C   
BRANCH  14  15
ATOM     15  C6  UNL     1       1.937   1.794   0.908  1.00  0.00    -0.002 A   
ATOM     16  C7  UNL     1       2.838   2.140   1.944  1.00  0.00     0.012 A   
ATOM     17  C11 UNL     1       2.344   0.891  -0.090  1.00  0.00     0.045 A   
ATOM     18  C8  UNL     1       4.124   1.591   1.990  1.00  0.00     0.037 A   
ATOM     19  C10 UNL     1       3.616   0.365  -0.012  1.00  0.00     0.109 A   
ATOM     20  C9  UNL     1       4.481   0.704   0.998  1.00  0.00     0.108 A   
ATOM     21  O1  UNL     1       4.158  -0.525  -0.883  1.00  0.00    -0.316 OA  
ATOM     22  O2  UNL     1       5.679   0.074   0.887  1.00  0.00    -0.316 OA  
ATOM     23  C12 UNL     1       5.486  -0.675  -0.332  1.00  0.00     0.337 C   
ENDBRANCH  14  15
ENDBRANCH  11  14
ENDBRANCH   7  11
ENDBRANCH   1   7
BRANCH   3  24
ATOM     24  C15 UNL     1      -2.688  -1.220  -2.549  1.00  0.00     0.186 C   
BRANCH  24  25
ATOM     25  C16 UNL     1      -1.817  -0.663  -3.614  1.00  0.00     0.046 A   
ATOM     26  C17 UNL     1      -0.579  -1.044  -4.084  1.00  0.00     0.133 A   
ATOM     27  N4  UNL     1      -2.145   0.449  -4.355  1.00  0.00    -0.307 N   
ATOM     28  N3  UNL     1      -0.139  -0.180  -5.048  1.00  0.00    -0.248 NA  
ATOM     29  C18 UNL     1      -1.103   0.698  -5.202  1.00  0.00     0.185 A   
ATOM     30  H23 UNL     1      -2.991   1.000  -4.285  1.00  0.00     0.153 HD  
ENDBRANCH  24  25
ENDBRANCH   3  24
TORSDOF 7
