REMARK SMILES CC(C)(C)[C@H]([NH2+]Cc1ccc2c(c1)OCO2)c1cn([C@@H](CO)c2ccc(F)c(F)c2)nn1
REMARK SMILES IDX 17 1 18 2 19 3 31 4 32 5 5 7 2 8 1 9 3 10 4 11 6 12 7 15
REMARK SMILES IDX 8 16 9 17 13 18 10 19 12 20 11 21 14 22 16 23 15 24 20 25
REMARK SMILES IDX 21 26 22 27 23 29 24 30 30 31 25 32 28 33 26 34 29 35 27 36
REMARK H PARENT 18 6 6 13 6 14 22 28
ROOT
ATOM     1   C14 UNL     1       0.657   0.242  -0.395  1.00  0.00     0.127 A   
ATOM     2   C15 UNL     1       0.343  -1.038  -0.789  1.00  0.00     0.046 A   
ATOM     3   N2  UNL     1       1.535  -1.709  -0.737  1.00  0.00    -0.202 N   
ATOM     4   N3  UNL     1       2.515  -0.897  -0.286  1.00  0.00    -0.075 NA  
ATOM     5   N4  UNL     1       1.991   0.300  -0.080  1.00  0.00    -0.132 NA  
ATOM     6   H20 UNL     1      -0.578  -1.520  -1.090  1.00  0.00     0.083 HD  
ENDROOT
BRANCH   1   7
ATOM     7   C5  UNL     1      -0.207   1.449  -0.195  1.00  0.00     0.120 C   
BRANCH   7   8
ATOM     8   C2  UNL     1      -0.261   2.414  -1.431  1.00  0.00     0.010 C   
ATOM     9   C1  UNL     1      -1.297   3.537  -1.189  1.00  0.00     0.017 C   
ATOM     10  C3  UNL     1       1.100   3.070  -1.738  1.00  0.00     0.017 C   
ATOM     11  C4  UNL     1      -0.721   1.643  -2.690  1.00  0.00     0.017 C   
ENDBRANCH   7   8
BRANCH   7  12
ATOM     12  N1  UNL     1       0.278   2.193   1.035  1.00  0.00     0.250 N   
ATOM     13  H11 UNL     1       1.300   2.268   0.934  1.00  0.00     0.199 HD  
ATOM     14  H12 UNL     1      -0.095   3.143   1.066  1.00  0.00     0.199 HD  
BRANCH  12  15
ATOM     15  C6  UNL     1       0.014   1.532   2.348  1.00  0.00     0.164 C   
BRANCH  15  16
ATOM     16  C7  UNL     1      -1.441   1.552   2.724  1.00  0.00    -0.002 A   
ATOM     17  C8  UNL     1      -2.049   2.753   3.166  1.00  0.00     0.012 A   
ATOM     18  C12 UNL     1      -2.218   0.387   2.603  1.00  0.00     0.045 A   
ATOM     19  C9  UNL     1      -3.412   2.795   3.478  1.00  0.00     0.037 A   
ATOM     20  C11 UNL     1      -3.559   0.464   2.916  1.00  0.00     0.109 A   
ATOM     21  C10 UNL     1      -4.140   1.634   3.340  1.00  0.00     0.108 A   
ATOM     22  O1  UNL     1      -4.449  -0.560   2.843  1.00  0.00    -0.316 OA  
ATOM     23  O2  UNL     1      -5.467   1.493   3.590  1.00  0.00    -0.316 OA  
ATOM     24  C13 UNL     1      -5.659   0.094   3.290  1.00  0.00     0.337 C   
ENDBRANCH  15  16
ENDBRANCH  12  15
ENDBRANCH   7  12
ENDBRANCH   1   7
BRANCH   3  25
ATOM     25  C16 UNL     1       1.829  -3.101  -1.081  1.00  0.00     0.155 C   
BRANCH  25  26
ATOM     26  C17 UNL     1       1.420  -4.055   0.061  1.00  0.00     0.185 C   
BRANCH  26  27
ATOM     27  O3  UNL     1       0.043  -3.937   0.422  1.00  0.00    -0.394 OA  
ATOM     28  H24 UNL     1      -0.141  -4.639   1.074  1.00  0.00     0.210 HD  
ENDBRANCH  26  27
ENDBRANCH  25  26
BRANCH  25  29
ATOM     29  C18 UNL     1       1.315  -3.427  -2.481  1.00  0.00    -0.020 A   
ATOM     30  C19 UNL     1       2.060  -2.991  -3.599  1.00  0.00     0.009 A   
ATOM     31  C23 UNL     1       0.115  -4.118  -2.714  1.00  0.00     0.048 A   
ATOM     32  C20 UNL     1       1.621  -3.245  -4.902  1.00  0.00     0.043 A   
ATOM     33  C22 UNL     1      -0.316  -4.365  -4.017  1.00  0.00     0.159 A   
ATOM     34  C21 UNL     1       0.431  -3.933  -5.103  1.00  0.00     0.158 A   
ATOM     35  F2  UNL     1      -1.470  -5.019  -4.208  1.00  0.00    -0.204 F   
ATOM     36  F1  UNL     1       0.009  -4.167  -6.352  1.00  0.00    -0.204 F   
ENDBRANCH  25  29
ENDBRANCH   3  25
TORSDOF 9
