REMARK SMILES CC(C)(C)[C@H]([NH2+]Cc1ccc2c(c1)OCO2)c1cn([C@H](CO)c2ccc(F)c(F)c2)nn1
REMARK SMILES IDX 17 1 18 2 19 3 31 4 32 5 5 7 2 8 1 9 3 10 4 11 6 12 7 15
REMARK SMILES IDX 8 16 9 17 13 18 10 19 12 20 11 21 14 22 16 23 15 24 20 25
REMARK SMILES IDX 21 26 22 27 23 29 24 30 30 31 25 32 28 33 26 34 29 35 27 36
REMARK H PARENT 18 6 6 13 6 14 22 28
ROOT
ATOM     1   C14 UNL     1      -0.465   0.723   1.804  1.00  0.00     0.127 A   
ATOM     2   C15 UNL     1      -0.021   1.753   1.009  1.00  0.00     0.046 A   
ATOM     3   N2  UNL     1       0.731   2.529   1.850  1.00  0.00    -0.202 N   
ATOM     4   N3  UNL     1       0.774   1.984   3.083  1.00  0.00    -0.075 NA  
ATOM     5   N4  UNL     1       0.043   0.881   3.068  1.00  0.00    -0.132 NA  
ATOM     6   H20 UNL     1      -0.160   2.005  -0.034  1.00  0.00     0.083 HD  
ENDROOT
BRANCH   1   7
ATOM     7   C5  UNL     1      -1.277  -0.494   1.482  1.00  0.00     0.120 C   
BRANCH   7   8
ATOM     8   C2  UNL     1      -2.811  -0.344   1.774  1.00  0.00     0.010 C   
ATOM     9   C1  UNL     1      -3.577  -1.578   1.242  1.00  0.00     0.017 C   
ATOM     10  C3  UNL     1      -3.376   0.888   1.031  1.00  0.00     0.017 C   
ATOM     11  C4  UNL     1      -3.123  -0.191   3.275  1.00  0.00     0.017 C   
ENDBRANCH   7   8
BRANCH   7  12
ATOM     12  N1  UNL     1      -0.704  -1.667   2.256  1.00  0.00     0.250 N   
ATOM     13  H11 UNL     1      -0.520  -1.313   3.206  1.00  0.00     0.199 HD  
ATOM     14  H12 UNL     1      -1.383  -2.425   2.346  1.00  0.00     0.199 HD  
BRANCH  12  15
ATOM     15  C6  UNL     1       0.578  -2.230   1.737  1.00  0.00     0.164 C   
BRANCH  15  16
ATOM     16  C7  UNL     1       0.382  -3.015   0.469  1.00  0.00    -0.002 A   
ATOM     17  C8  UNL     1      -0.220  -4.296   0.508  1.00  0.00     0.012 A   
ATOM     18  C12 UNL     1       0.753  -2.462  -0.770  1.00  0.00     0.045 A   
ATOM     19  C9  UNL     1      -0.459  -5.014  -0.667  1.00  0.00     0.037 A   
ATOM     20  C11 UNL     1       0.498  -3.194  -1.909  1.00  0.00     0.109 A   
ATOM     21  C10 UNL     1      -0.091  -4.432  -1.862  1.00  0.00     0.108 A   
ATOM     22  O1  UNL     1       0.776  -2.800  -3.180  1.00  0.00    -0.316 OA  
ATOM     23  O2  UNL     1      -0.253  -4.977  -3.094  1.00  0.00    -0.316 OA  
ATOM     24  C13 UNL     1       0.334  -3.955  -3.928  1.00  0.00     0.337 C   
ENDBRANCH  15  16
ENDBRANCH  12  15
ENDBRANCH   7  12
ENDBRANCH   1   7
BRANCH   3  25
ATOM     25  C16 UNL     1       1.512   3.730   1.547  1.00  0.00     0.155 C   
BRANCH  25  26
ATOM     26  C17 UNL     1       0.590   4.938   1.275  1.00  0.00     0.185 C   
BRANCH  26  27
ATOM     27  O3  UNL     1      -0.277   4.737   0.158  1.00  0.00    -0.394 OA  
ATOM     28  H24 UNL     1      -0.804   5.551   0.056  1.00  0.00     0.210 HD  
ENDBRANCH  26  27
ENDBRANCH  25  26
BRANCH  25  29
ATOM     29  C18 UNL     1       2.594   3.405   0.518  1.00  0.00    -0.020 A   
ATOM     30  C19 UNL     1       2.593   3.909  -0.794  1.00  0.00     0.009 A   
ATOM     31  C23 UNL     1       3.644   2.543   0.894  1.00  0.00     0.048 A   
ATOM     32  C20 UNL     1       3.606   3.566  -1.698  1.00  0.00     0.043 A   
ATOM     33  C22 UNL     1       4.643   2.200  -0.015  1.00  0.00     0.159 A   
ATOM     34  C21 UNL     1       4.624   2.709  -1.304  1.00  0.00     0.158 A   
ATOM     35  F2  UNL     1       5.612   1.357   0.368  1.00  0.00    -0.204 F   
ATOM     36  F1  UNL     1       5.585   2.379  -2.176  1.00  0.00    -0.204 F   
ENDBRANCH  25  29
ENDBRANCH   3  25
TORSDOF 9
