REMARK SMILES Fc1ncc(Cl)cc1Cn1cc([C@@H]([NH2+]Cc2ccc3c(c2)OCO3)C2CCCC2)nn1
REMARK SMILES IDX 10 1 11 2 12 3 30 4 31 5 9 7 8 8 2 9 3 10 4 11 7 12 5 13
REMARK SMILES IDX 1 14 6 15 13 16 14 17 15 20 16 21 17 22 21 23 18 24 20 25
REMARK SMILES IDX 19 26 22 27 24 28 23 29 25 30 26 31 29 32 27 33 28 34
REMARK H PARENT 11 6 14 18 14 19
ROOT
ATOM     1   N2  UNL     1       2.719  -1.609   1.437  1.00  0.00    -0.208 N   
ATOM     2   C7  UNL     1       2.360  -2.208   0.260  1.00  0.00     0.046 A   
ATOM     3   C8  UNL     1       1.589  -1.258  -0.373  1.00  0.00     0.127 A   
ATOM     4   N4  UNL     1       1.527  -0.133   0.409  1.00  0.00    -0.132 NA  
ATOM     5   N5  UNL     1       2.226  -0.357   1.508  1.00  0.00    -0.076 NA  
ATOM     6   H5  UNL     1       2.644  -3.222   0.015  1.00  0.00     0.083 HD  
ENDROOT
BRANCH   1   7
ATOM     7   C6  UNL     1       3.479  -2.174   2.541  1.00  0.00     0.174 C   
BRANCH   7   8
ATOM     8   C5  UNL     1       2.627  -2.357   3.764  1.00  0.00     0.028 A   
ATOM     9   C1  UNL     1       1.516  -3.196   3.739  1.00  0.00     0.217 A   
ATOM     10  N1  UNL     1       0.687  -3.395   4.784  1.00  0.00    -0.226 NA  
ATOM     11  C2  UNL     1       0.987  -2.733   5.928  1.00  0.00     0.134 A   
ATOM     12  C4  UNL     1       2.907  -1.692   4.965  1.00  0.00     0.032 A   
ATOM     13  C3  UNL     1       2.074  -1.883   6.064  1.00  0.00     0.059 A   
ATOM     14  F1  UNL     1       1.230  -3.854   2.606  1.00  0.00    -0.185 F   
ATOM     15  CL1 UNL     1       2.387  -1.080   7.546  1.00  0.00    -0.083 Cl  
ENDBRANCH   7   8
ENDBRANCH   1   7
BRANCH   3  16
ATOM     16  C9  UNL     1       0.814  -1.306  -1.652  1.00  0.00     0.117 C   
BRANCH  16  17
ATOM     17  N3  UNL     1      -0.443  -0.492  -1.510  1.00  0.00     0.249 N   
ATOM     18  H7  UNL     1      -0.176   0.386  -1.040  1.00  0.00     0.199 HD  
ATOM     19  H8  UNL     1      -0.840  -0.222  -2.414  1.00  0.00     0.199 HD  
BRANCH  17  20
ATOM     20  C10 UNL     1      -1.513  -1.120  -0.683  1.00  0.00     0.164 C   
BRANCH  20  21
ATOM     21  C11 UNL     1      -2.661  -0.168  -0.505  1.00  0.00    -0.002 A   
ATOM     22  C12 UNL     1      -2.613   0.818   0.510  1.00  0.00     0.012 A   
ATOM     23  C16 UNL     1      -3.762  -0.213  -1.375  1.00  0.00     0.045 A   
ATOM     24  C13 UNL     1      -3.651   1.743   0.663  1.00  0.00     0.037 A   
ATOM     25  C15 UNL     1      -4.770   0.712  -1.195  1.00  0.00     0.109 A   
ATOM     26  C14 UNL     1      -4.716   1.663  -0.207  1.00  0.00     0.108 A   
ATOM     27  O1  UNL     1      -5.900   0.804  -1.944  1.00  0.00    -0.316 OA  
ATOM     28  O2  UNL     1      -5.805   2.475  -0.210  1.00  0.00    -0.316 OA  
ATOM     29  C17 UNL     1      -6.574   1.902  -1.288  1.00  0.00     0.337 C   
ENDBRANCH  20  21
ENDBRANCH  17  20
ENDBRANCH  16  17
BRANCH  16  30
ATOM     30  C18 UNL     1       1.658  -0.818  -2.845  1.00  0.00     0.043 C   
ATOM     31  C19 UNL     1       1.970   0.680  -2.894  1.00  0.00     0.010 C   
ATOM     32  C22 UNL     1       1.025  -1.058  -4.217  1.00  0.00     0.010 C   
ATOM     33  C20 UNL     1       2.492   0.896  -4.311  1.00  0.00     0.001 C   
ATOM     34  C21 UNL     1       1.854  -0.198  -5.168  1.00  0.00     0.001 C   
ENDBRANCH  16  30
ENDBRANCH   3  16
TORSDOF 7
