REMARK SMILES c1cc(CCn2cc([C@@H]([NH2+]Cc3ccc4c(c3)OCO4)C3CCCCC3)nn2)c2[nH]ncc2c1
REMARK SMILES IDX 6 1 7 2 8 3 27 4 28 5 5 7 4 8 3 9 1 10 2 11 34 12 33 13
REMARK SMILES IDX 29 14 32 15 30 16 31 17 9 19 10 20 11 23 12 24 13 25 17 26
REMARK SMILES IDX 14 27 16 28 15 29 18 30 20 31 19 32 21 33 22 34 26 35 23 36
REMARK SMILES IDX 25 37 24 38
REMARK H PARENT 7 6 30 18 10 21 10 22
ROOT
ATOM     1   N1  UNL     1      -3.075   1.237  -0.673  1.00  0.00    -0.212 N   
ATOM     2   C6  UNL     1      -2.037   0.724  -1.400  1.00  0.00     0.045 A   
ATOM     3   C7  UNL     1      -0.905   1.249  -0.807  1.00  0.00     0.127 A   
ATOM     4   N3  UNL     1      -1.302   2.109   0.188  1.00  0.00    -0.132 NA  
ATOM     5   N4  UNL     1      -2.621   2.067   0.283  1.00  0.00    -0.076 NA  
ATOM     6   H7  UNL     1      -2.196  -0.008  -2.179  1.00  0.00     0.083 HD  
ENDROOT
BRANCH   1   7
ATOM     7   C5  UNL     1      -4.465   0.820  -0.687  1.00  0.00     0.139 C   
BRANCH   7   8
ATOM     8   C4  UNL     1      -4.825  -0.099   0.491  1.00  0.00     0.059 C   
BRANCH   8   9
ATOM     9   C3  UNL     1      -4.120  -1.437   0.431  1.00  0.00    -0.023 A   
ATOM     10  C1  UNL     1      -4.107  -3.787  -0.267  1.00  0.00     0.001 A   
ATOM     11  C2  UNL     1      -4.753  -2.554  -0.147  1.00  0.00     0.006 A   
ATOM     12  C26 UNL     1      -2.784  -3.952   0.159  1.00  0.00     0.012 A   
ATOM     13  C25 UNL     1      -2.119  -2.851   0.720  1.00  0.00     0.017 A   
ATOM     14  C23 UNL     1      -2.802  -1.652   0.876  1.00  0.00     0.059 A   
ATOM     15  C24 UNL     1      -0.813  -2.585   1.191  1.00  0.00     0.141 A   
ATOM     16  N5  UNL     1      -1.912  -0.824   1.516  1.00  0.00    -0.238 N   
ATOM     17  N6  UNL     1      -0.640  -1.302   1.541  1.00  0.00    -0.192 NA  
ATOM     18  H29 UNL     1      -2.091   0.126   1.834  1.00  0.00     0.176 HD  
ENDBRANCH   8   9
ENDBRANCH   7   8
ENDBRANCH   1   7
BRANCH   3  19
ATOM     19  C8  UNL     1       0.566   0.947  -0.985  1.00  0.00     0.117 C   
BRANCH  19  20
ATOM     20  N2  UNL     1       1.153   0.447   0.316  1.00  0.00     0.249 N   
ATOM     21  H9  UNL     1       0.553  -0.315   0.698  1.00  0.00     0.199 HD  
ATOM     22  H10 UNL     1       2.073   0.027   0.181  1.00  0.00     0.199 HD  
BRANCH  20  23
ATOM     23  C9  UNL     1       1.304   1.455   1.409  1.00  0.00     0.164 C   
BRANCH  23  24
ATOM     24  C10 UNL     1       2.432   1.077   2.333  1.00  0.00    -0.002 A   
ATOM     25  C11 UNL     1       3.663   1.776   2.281  1.00  0.00     0.012 A   
ATOM     26  C15 UNL     1       2.284   0.001   3.227  1.00  0.00     0.045 A   
ATOM     27  C12 UNL     1       4.730   1.415   3.113  1.00  0.00     0.037 A   
ATOM     28  C14 UNL     1       3.356  -0.330   4.029  1.00  0.00     0.109 A   
ATOM     29  C13 UNL     1       4.544   0.358   3.976  1.00  0.00     0.108 A   
ATOM     30  O1  UNL     1       3.381  -1.341   4.937  1.00  0.00    -0.316 OA  
ATOM     31  O2  UNL     1       5.465  -0.128   4.849  1.00  0.00    -0.316 OA  
ATOM     32  C16 UNL     1       4.715  -1.191   5.476  1.00  0.00     0.337 C   
ENDBRANCH  23  24
ENDBRANCH  20  23
ENDBRANCH  19  20
BRANCH  19  33
ATOM     33  C17 UNL     1       0.850  -0.082  -2.134  1.00  0.00     0.043 C   
ATOM     34  C18 UNL     1       2.264  -0.700  -2.163  1.00  0.00     0.010 C   
ATOM     35  C22 UNL     1       0.593   0.546  -3.529  1.00  0.00     0.010 C   
ATOM     36  C19 UNL     1       3.343   0.324  -2.501  1.00  0.00     0.001 C   
ATOM     37  C21 UNL     1       1.667   1.557  -3.941  1.00  0.00     0.001 C   
ATOM     38  C20 UNL     1       3.073   0.972  -3.855  1.00  0.00     0.000 C   
ENDBRANCH  19  33
ENDBRANCH   3  19
TORSDOF 8
