REMARK SMILES CCc1ccsc1[C@@H](CO)n1cc([C@H](CC(C)C)[NH2+]Cc2ccc3c(c2)OCO3)nn1
REMARK SMILES IDX 11 1 12 2 13 3 30 4 31 5 8 7 7 8 3 9 4 10 5 11 6 12 2 13
REMARK SMILES IDX 1 14 9 15 10 16 14 18 15 19 16 20 17 21 18 22 19 23 20 26
REMARK SMILES IDX 21 27 22 28 26 29 23 30 25 31 24 32 27 33 29 34 28 35
REMARK H PARENT 12 6 10 17 19 24 19 25
ROOT
ATOM     1   N1  UNL     1      -0.010   2.390  -0.173  1.00  0.00    -0.202 N   
ATOM     2   C9  UNL     1      -1.134   1.603  -0.168  1.00  0.00     0.046 A   
ATOM     3   C10 UNL     1      -0.648   0.321  -0.046  1.00  0.00     0.127 A   
ATOM     4   N3  UNL     1       0.717   0.359   0.007  1.00  0.00    -0.132 NA  
ATOM     5   N4  UNL     1       1.097   1.623  -0.074  1.00  0.00    -0.075 NA  
ATOM     6   H12 UNL     1      -2.126   2.021  -0.261  1.00  0.00     0.083 HD  
ENDROOT
BRANCH   1   7
ATOM     7   C7  UNL     1       0.050   3.843  -0.336  1.00  0.00     0.162 C   
BRANCH   7   8
ATOM     8   C6  UNL     1      -0.287   4.541   0.968  1.00  0.00     0.017 A   
ATOM     9   C3  UNL     1       0.321   4.499   2.221  1.00  0.00    -0.036 A   
ATOM     10  C4  UNL     1      -0.356   5.366   3.150  1.00  0.00     0.012 A   
ATOM     11  C5  UNL     1      -1.432   6.019   2.598  1.00  0.00     0.046 A   
ATOM     12  S1  UNL     1      -1.649   5.607   0.963  1.00  0.00    -0.100 S   
BRANCH   9  13
ATOM     13  C2  UNL     1       1.528   3.687   2.623  1.00  0.00     0.033 C   
ATOM     14  C1  UNL     1       1.156   2.449   3.428  1.00  0.00     0.009 C   
ENDBRANCH   9  13
ENDBRANCH   7   8
BRANCH   7  15
ATOM     15  C8  UNL     1       1.355   4.359  -0.962  1.00  0.00     0.186 C   
BRANCH  15  16
ATOM     16  O1  UNL     1       1.381   4.045  -2.360  1.00  0.00    -0.394 OA  
ATOM     17  H11 UNL     1       2.203   4.427  -2.721  1.00  0.00     0.210 HD  
ENDBRANCH  15  16
ENDBRANCH   7  15
ENDBRANCH   1   7
BRANCH   3  18
ATOM     18  C11 UNL     1      -1.344  -0.995  -0.049  1.00  0.00     0.114 C   
BRANCH  18  19
ATOM     19  C12 UNL     1      -1.225  -1.732   1.300  1.00  0.00     0.064 C   
BRANCH  19  20
ATOM     20  C13 UNL     1      -1.873  -1.008   2.501  1.00  0.00    -0.012 C   
ATOM     21  C14 UNL     1      -3.383  -0.839   2.330  1.00  0.00     0.007 C   
ATOM     22  C15 UNL     1      -1.584  -1.788   3.788  1.00  0.00     0.007 C   
ENDBRANCH  19  20
ENDBRANCH  18  19
BRANCH  18  23
ATOM     23  N2  UNL     1      -0.735  -1.892  -1.102  1.00  0.00     0.249 N   
ATOM     24  H23 UNL     1      -1.060  -2.858  -0.992  1.00  0.00     0.199 HD  
ATOM     25  H24 UNL     1       0.282  -1.905  -0.940  1.00  0.00     0.199 HD  
BRANCH  23  26
ATOM     26  C16 UNL     1      -0.966  -1.454  -2.505  1.00  0.00     0.164 C   
BRANCH  26  27
ATOM     27  C17 UNL     1      -0.492  -2.495  -3.477  1.00  0.00    -0.002 A   
ATOM     28  C18 UNL     1      -1.385  -3.478  -3.956  1.00  0.00     0.012 A   
ATOM     29  C22 UNL     1       0.848  -2.514  -3.898  1.00  0.00     0.045 A   
ATOM     30  C19 UNL     1      -0.958  -4.460  -4.854  1.00  0.00     0.037 A   
ATOM     31  C21 UNL     1       1.235  -3.493  -4.789  1.00  0.00     0.109 A   
ATOM     32  C20 UNL     1       0.356  -4.438  -5.254  1.00  0.00     0.108 A   
ATOM     33  O2  UNL     1       2.478  -3.642  -5.307  1.00  0.00    -0.316 OA  
ATOM     34  O3  UNL     1       0.938  -5.301  -6.124  1.00  0.00    -0.316 OA  
ATOM     35  C23 UNL     1       2.272  -4.761  -6.196  1.00  0.00     0.337 C   
ENDBRANCH  26  27
ENDBRANCH  23  26
ENDBRANCH  18  23
ENDBRANCH   3  18
TORSDOF 11
