REMARK SMILES CCc1ccsc1[C@H](CO)n1cc([C@H](CC(C)C)[NH2+]Cc2ccc3c(c2)OCO3)nn1
REMARK SMILES IDX 11 1 12 2 13 3 30 4 31 5 8 7 7 8 3 9 4 10 5 11 6 12 2 13
REMARK SMILES IDX 1 14 9 15 10 16 14 18 15 19 16 20 17 21 18 22 19 23 20 26
REMARK SMILES IDX 21 27 22 28 26 29 23 30 25 31 24 32 27 33 29 34 28 35
REMARK H PARENT 12 6 10 17 19 24 19 25
ROOT
ATOM     1   N1  UNL     1      -1.017  -1.236   0.213  1.00  0.00    -0.202 N   
ATOM     2   C9  UNL     1      -1.197   0.119   0.333  1.00  0.00     0.046 A   
ATOM     3   C10 UNL     1      -0.652   0.636  -0.820  1.00  0.00     0.127 A   
ATOM     4   N3  UNL     1      -0.170  -0.392  -1.589  1.00  0.00    -0.132 NA  
ATOM     5   N4  UNL     1      -0.400  -1.527  -0.951  1.00  0.00    -0.075 NA  
ATOM     6   H12 UNL     1      -1.664   0.562   1.203  1.00  0.00     0.083 HD  
ENDROOT
BRANCH   1   7
ATOM     7   C7  UNL     1      -1.409  -2.271   1.169  1.00  0.00     0.162 C   
BRANCH   7   8
ATOM     8   C6  UNL     1      -0.430  -2.274   2.338  1.00  0.00     0.017 A   
ATOM     9   C3  UNL     1       0.910  -2.650   2.425  1.00  0.00    -0.036 A   
ATOM     10  C4  UNL     1       1.417  -2.442   3.755  1.00  0.00     0.012 A   
ATOM     11  C5  UNL     1       0.476  -1.940   4.621  1.00  0.00     0.046 A   
ATOM     12  S1  UNL     1      -1.020  -1.696   3.856  1.00  0.00    -0.100 S   
BRANCH   9  13
ATOM     13  C2  UNL     1       1.780  -3.207   1.329  1.00  0.00     0.033 C   
ATOM     14  C1  UNL     1       2.043  -4.698   1.492  1.00  0.00     0.009 C   
ENDBRANCH   9  13
ENDBRANCH   7   8
BRANCH   7  15
ATOM     15  C8  UNL     1      -1.624  -3.655   0.533  1.00  0.00     0.186 C   
BRANCH  15  16
ATOM     16  O1  UNL     1      -2.381  -4.492   1.408  1.00  0.00    -0.394 OA  
ATOM     17  H11 UNL     1      -2.421  -5.379   1.007  1.00  0.00     0.210 HD  
ENDBRANCH  15  16
ENDBRANCH   7  15
ENDBRANCH   1   7
BRANCH   3  18
ATOM     18  C11 UNL     1      -0.466   2.043  -1.280  1.00  0.00     0.114 C   
BRANCH  18  19
ATOM     19  C12 UNL     1      -1.531   2.480  -2.304  1.00  0.00     0.064 C   
BRANCH  19  20
ATOM     20  C13 UNL     1      -2.982   2.501  -1.776  1.00  0.00    -0.012 C   
ATOM     21  C14 UNL     1      -3.162   3.465  -0.603  1.00  0.00     0.007 C   
ATOM     22  C15 UNL     1      -3.936   2.884  -2.910  1.00  0.00     0.007 C   
ENDBRANCH  19  20
ENDBRANCH  18  19
BRANCH  18  23
ATOM     23  N2  UNL     1       0.878   2.175  -1.958  1.00  0.00     0.249 N   
ATOM     24  H23 UNL     1       0.963   1.373  -2.601  1.00  0.00     0.199 HD  
ATOM     25  H24 UNL     1       0.926   3.017  -2.540  1.00  0.00     0.199 HD  
BRANCH  23  26
ATOM     26  C16 UNL     1       2.054   2.143  -1.045  1.00  0.00     0.164 C   
BRANCH  26  27
ATOM     27  C17 UNL     1       3.332   2.131  -1.833  1.00  0.00    -0.002 A   
ATOM     28  C18 UNL     1       3.990   3.341  -2.157  1.00  0.00     0.012 A   
ATOM     29  C22 UNL     1       3.856   0.911  -2.296  1.00  0.00     0.045 A   
ATOM     30  C19 UNL     1       5.162   3.338  -2.922  1.00  0.00     0.037 A   
ATOM     31  C21 UNL     1       5.013   0.944  -3.046  1.00  0.00     0.109 A   
ATOM     32  C20 UNL     1       5.648   2.122  -3.350  1.00  0.00     0.108 A   
ATOM     33  O2  UNL     1       5.651  -0.138  -3.562  1.00  0.00    -0.316 OA  
ATOM     34  O3  UNL     1       6.767   1.931  -4.096  1.00  0.00    -0.316 OA  
ATOM     35  C23 UNL     1       6.778   0.492  -4.213  1.00  0.00     0.337 C   
ENDBRANCH  26  27
ENDBRANCH  23  26
ENDBRANCH  18  23
ENDBRANCH   3  18
TORSDOF 11
