REMARK SMILES CC(=O)c1cccc(Cn2cc([C@@H]([NH2+]Cc3ccc4c(c3)OCO4)C3CCCC3)nn2)c1
REMARK SMILES IDX 10 1 11 2 12 3 30 4 31 5 9 7 8 8 4 9 5 10 32 11 6 12 7 13
REMARK SMILES IDX 2 14 1 15 3 16 13 17 14 18 15 21 16 22 17 23 21 24 18 25
REMARK SMILES IDX 20 26 19 27 22 28 24 29 23 30 25 31 26 32 29 33 27 34 28 35
REMARK H PARENT 11 6 14 19 14 20
ROOT
ATOM     1   N1  UNL     1       1.478   1.835   2.538  1.00  0.00    -0.208 N   
ATOM     2   C9  UNL     1       1.250   0.488   2.403  1.00  0.00     0.046 A   
ATOM     3   C10 UNL     1       1.574   0.232   1.089  1.00  0.00     0.127 A   
ATOM     4   N3  UNL     1       2.097   1.366   0.524  1.00  0.00    -0.132 NA  
ATOM     5   N4  UNL     1       2.036   2.337   1.419  1.00  0.00    -0.076 NA  
ATOM     6   H9  UNL     1       0.780  -0.098   3.183  1.00  0.00     0.083 HD  
ENDROOT
BRANCH   1   7
ATOM     7   C8  UNL     1       0.925   2.726   3.554  1.00  0.00     0.169 C   
BRANCH   7   8
ATOM     8   C7  UNL     1      -0.591   2.695   3.544  1.00  0.00    -0.028 A   
ATOM     9   C3  UNL     1      -2.701   2.483   2.328  1.00  0.00     0.018 A   
ATOM     10  C4  UNL     1      -3.409   2.522   3.529  1.00  0.00     0.012 A   
ATOM     11  C25 UNL     1      -1.307   2.607   2.338  1.00  0.00     0.017 A   
ATOM     12  C5  UNL     1      -2.713   2.676   4.732  1.00  0.00     0.001 A   
ATOM     13  C6  UNL     1      -1.316   2.755   4.742  1.00  0.00     0.005 A   
BRANCH   9  14
ATOM     14  C2  UNL     1      -3.359   2.228   1.020  1.00  0.00     0.159 C   
ATOM     15  C1  UNL     1      -4.759   2.729   0.796  1.00  0.00     0.093 C   
ATOM     16  O1  UNL     1      -2.747   1.583   0.169  1.00  0.00    -0.295 OA  
ENDBRANCH   9  14
ENDBRANCH   7   8
ENDBRANCH   1   7
BRANCH   3  17
ATOM     17  C11 UNL     1       1.328  -0.972   0.241  1.00  0.00     0.117 C   
BRANCH  17  18
ATOM     18  N2  UNL     1       0.927  -0.559  -1.148  1.00  0.00     0.249 N   
ATOM     19  H11 UNL     1       1.035  -1.322  -1.821  1.00  0.00     0.199 HD  
ATOM     20  H12 UNL     1       1.577   0.183  -1.447  1.00  0.00     0.199 HD  
BRANCH  18  21
ATOM     21  C12 UNL     1      -0.453   0.007  -1.284  1.00  0.00     0.164 C   
BRANCH  21  22
ATOM     22  C13 UNL     1      -0.800   0.134  -2.742  1.00  0.00    -0.002 A   
ATOM     23  C14 UNL     1      -0.606   1.356  -3.422  1.00  0.00     0.012 A   
ATOM     24  C18 UNL     1      -1.238  -0.995  -3.458  1.00  0.00     0.045 A   
ATOM     25  C15 UNL     1      -0.855   1.461  -4.796  1.00  0.00     0.037 A   
ATOM     26  C17 UNL     1      -1.464  -0.860  -4.811  1.00  0.00     0.109 A   
ATOM     27  C16 UNL     1      -1.275   0.332  -5.463  1.00  0.00     0.108 A   
ATOM     28  O2  UNL     1      -1.871  -1.851  -5.647  1.00  0.00    -0.316 OA  
ATOM     29  O3  UNL     1      -1.549   0.246  -6.792  1.00  0.00    -0.316 OA  
ATOM     30  C19 UNL     1      -1.926  -1.142  -6.906  1.00  0.00     0.337 C   
ENDBRANCH  21  22
ENDBRANCH  18  21
ENDBRANCH  17  18
BRANCH  17  31
ATOM     31  C20 UNL     1       2.549  -1.910   0.199  1.00  0.00     0.043 C   
ATOM     32  C21 UNL     1       2.264  -3.280  -0.432  1.00  0.00     0.010 C   
ATOM     33  C24 UNL     1       3.795  -1.382  -0.541  1.00  0.00     0.010 C   
ATOM     34  C22 UNL     1       3.641  -3.781  -0.831  1.00  0.00     0.001 C   
ATOM     35  C23 UNL     1       4.300  -2.538  -1.405  1.00  0.00     0.001 C   
ENDBRANCH  17  31
ENDBRANCH   3  17
TORSDOF 8
