REMARK SMILES Oc1ccc(Cn2cc([C@@H]([NH2+]Cc3ccc4c(c3)OCO4)C3CCCC3)nn2)cc1Cl
REMARK SMILES IDX 7 1 8 2 9 3 27 4 28 5 6 7 5 8 2 9 3 10 30 11 4 12 29 13
REMARK SMILES IDX 31 14 1 15 10 17 11 18 12 21 13 22 14 23 18 24 15 25 17 26
REMARK SMILES IDX 16 27 19 28 21 29 20 30 22 31 23 32 26 33 24 34 25 35
REMARK H PARENT 8 6 1 16 11 19 11 20
ROOT
ATOM     1   N1  UNL     1      -0.898  -1.480   2.913  1.00  0.00    -0.208 N   
ATOM     2   C6  UNL     1      -0.264  -2.215   1.947  1.00  0.00     0.046 A   
ATOM     3   C7  UNL     1      -0.190  -1.359   0.870  1.00  0.00     0.127 A   
ATOM     4   N3  UNL     1      -0.837  -0.189   1.187  1.00  0.00    -0.132 NA  
ATOM     5   N4  UNL     1      -1.277  -0.282   2.429  1.00  0.00    -0.076 NA  
ATOM     6   H6  UNL     1       0.099  -3.218   2.130  1.00  0.00     0.083 HD  
ENDROOT
BRANCH   1   7
ATOM     7   C5  UNL     1      -1.152  -1.838   4.299  1.00  0.00     0.169 C   
BRANCH   7   8
ATOM     8   C4  UNL     1       0.127  -1.843   5.104  1.00  0.00    -0.027 A   
ATOM     9   C1  UNL     1       2.506  -1.861   6.587  1.00  0.00     0.090 A   
ATOM     10  C2  UNL     1       1.788  -3.040   6.419  1.00  0.00     0.035 A   
ATOM     11  C23 UNL     1       2.046  -0.669   6.027  1.00  0.00     0.071 A   
ATOM     12  C3  UNL     1       0.601  -3.033   5.681  1.00  0.00     0.008 A   
ATOM     13  C22 UNL     1       0.859  -0.656   5.292  1.00  0.00     0.028 A   
ATOM     14  CL1 UNL     1       2.935   0.793   6.225  1.00  0.00    -0.081 Cl  
BRANCH   9  15
ATOM     15  O1  UNL     1       3.661  -1.928   7.314  1.00  0.00    -0.359 OA  
ATOM     16  H1  UNL     1       4.027  -1.025   7.370  1.00  0.00     0.218 HD  
ENDBRANCH   9  15
ENDBRANCH   7   8
ENDBRANCH   1   7
BRANCH   3  17
ATOM     17  C8  UNL     1       0.404  -1.519  -0.494  1.00  0.00     0.117 C   
BRANCH  17  18
ATOM     18  N2  UNL     1      -0.327  -0.634  -1.477  1.00  0.00     0.249 N   
ATOM     19  H8  UNL     1      -0.445   0.283  -1.022  1.00  0.00     0.199 HD  
ATOM     20  H9  UNL     1       0.228  -0.467  -2.322  1.00  0.00     0.199 HD  
BRANCH  18  21
ATOM     21  C9  UNL     1      -1.681  -1.110  -1.871  1.00  0.00     0.164 C   
BRANCH  21  22
ATOM     22  C10 UNL     1      -2.357  -0.107  -2.761  1.00  0.00    -0.002 A   
ATOM     23  C11 UNL     1      -3.112   0.949  -2.194  1.00  0.00     0.012 A   
ATOM     24  C15 UNL     1      -2.204  -0.182  -4.157  1.00  0.00     0.045 A   
ATOM     25  C12 UNL     1      -3.723   1.909  -3.007  1.00  0.00     0.037 A   
ATOM     26  C14 UNL     1      -2.823   0.780  -4.928  1.00  0.00     0.109 A   
ATOM     27  C13 UNL     1      -3.561   1.796  -4.371  1.00  0.00     0.108 A   
ATOM     28  O2  UNL     1      -2.787   0.850  -6.285  1.00  0.00    -0.316 OA  
ATOM     29  O3  UNL     1      -4.082   2.633  -5.304  1.00  0.00    -0.316 OA  
ATOM     30  C16 UNL     1      -3.613   2.014  -6.522  1.00  0.00     0.337 C   
ENDBRANCH  21  22
ENDBRANCH  18  21
ENDBRANCH  17  18
BRANCH  17  31
ATOM     31  C17 UNL     1       1.905  -1.172  -0.580  1.00  0.00     0.043 C   
ATOM     32  C18 UNL     1       2.821  -2.132   0.197  1.00  0.00     0.010 C   
ATOM     33  C21 UNL     1       2.305   0.245  -0.117  1.00  0.00     0.010 C   
ATOM     34  C19 UNL     1       4.051  -1.290   0.509  1.00  0.00     0.001 C   
ATOM     35  C20 UNL     1       3.448   0.052   0.883  1.00  0.00     0.001 C   
ENDBRANCH  17  31
ENDBRANCH   3  17
TORSDOF 8
