REMARK SMILES CC(C)C[C@H]([NH2+]Cc1ccc2c(c1)OCO2)c1cn(Cc2cc(F)cc(N([O-])[O-])c2)nn1
REMARK SMILES IDX 17 1 18 2 19 3 31 4 32 5 5 7 4 8 2 9 1 10 3 11 6 12 7 15
REMARK SMILES IDX 8 16 9 17 13 18 10 19 12 20 11 21 14 22 16 23 15 24 20 25
REMARK SMILES IDX 21 26 22 27 30 28 23 29 26 30 25 31 24 32 27 33 28 34 29 35
REMARK H PARENT 18 6 6 13 6 14
ROOT
ATOM     1   C14 UNL     1      -0.872  -1.347   0.700  1.00  0.00     0.127 A   
ATOM     2   C15 UNL     1      -1.652  -2.136  -0.118  1.00  0.00     0.046 A   
ATOM     3   N2  UNL     1      -2.933  -1.766   0.190  1.00  0.00    -0.208 N   
ATOM     4   N4  UNL     1      -2.941  -0.806   1.134  1.00  0.00    -0.076 NA  
ATOM     5   N5  UNL     1      -1.686  -0.545   1.459  1.00  0.00    -0.132 NA  
ATOM     6   H20 UNL     1      -1.427  -2.892  -0.858  1.00  0.00     0.083 HD  
ENDROOT
BRANCH   1   7
ATOM     7   C5  UNL     1       0.614  -1.234   0.847  1.00  0.00     0.114 C   
BRANCH   7   8
ATOM     8   C4  UNL     1       1.137  -2.260   1.872  1.00  0.00     0.064 C   
BRANCH   8   9
ATOM     9   C2  UNL     1       2.664  -2.302   2.090  1.00  0.00    -0.012 C   
ATOM     10  C1  UNL     1       3.008  -3.399   3.103  1.00  0.00     0.007 C   
ATOM     11  C3  UNL     1       3.438  -2.538   0.793  1.00  0.00     0.007 C   
ENDBRANCH   8   9
ENDBRANCH   7   8
BRANCH   7  12
ATOM     12  N1  UNL     1       0.985   0.152   1.298  1.00  0.00     0.249 N   
ATOM     13  H11 UNL     1       0.349   0.394   2.074  1.00  0.00     0.199 HD  
ATOM     14  H12 UNL     1       1.933   0.197   1.681  1.00  0.00     0.199 HD  
BRANCH  12  15
ATOM     15  C6  UNL     1       0.845   1.217   0.265  1.00  0.00     0.164 C   
BRANCH  15  16
ATOM     16  C7  UNL     1       1.151   2.563   0.858  1.00  0.00    -0.002 A   
ATOM     17  C8  UNL     1       0.129   3.305   1.497  1.00  0.00     0.012 A   
ATOM     18  C12 UNL     1       2.463   3.067   0.834  1.00  0.00     0.045 A   
ATOM     19  C9  UNL     1       0.405   4.540   2.095  1.00  0.00     0.037 A   
ATOM     20  C11 UNL     1       2.700   4.287   1.433  1.00  0.00     0.109 A   
ATOM     21  C10 UNL     1       1.701   5.003   2.045  1.00  0.00     0.108 A   
ATOM     22  O1  UNL     1       3.904   4.913   1.500  1.00  0.00    -0.316 OA  
ATOM     23  O2  UNL     1       2.150   6.171   2.572  1.00  0.00    -0.316 OA  
ATOM     24  C13 UNL     1       3.545   6.123   2.204  1.00  0.00     0.337 C   
ENDBRANCH  15  16
ENDBRANCH  12  15
ENDBRANCH   7  12
ENDBRANCH   1   7
BRANCH   3  25
ATOM     25  C16 UNL     1      -4.177  -2.274  -0.362  1.00  0.00     0.169 C   
BRANCH  25  26
ATOM     26  C17 UNL     1      -4.677  -1.387  -1.477  1.00  0.00    -0.024 A   
ATOM     27  C18 UNL     1      -5.621  -0.382  -1.218  1.00  0.00     0.044 A   
ATOM     28  C22 UNL     1      -4.184  -1.526  -2.784  1.00  0.00     0.036 A   
ATOM     29  C19 UNL     1      -6.063   0.452  -2.245  1.00  0.00     0.125 A   
ATOM     30  C21 UNL     1      -4.635  -0.667  -3.804  1.00  0.00     0.121 A   
ATOM     31  C20 UNL     1      -5.583   0.324  -3.541  1.00  0.00     0.070 A   
ATOM     32  F1  UNL     1      -6.962   1.405  -1.970  1.00  0.00    -0.207 F   
BRANCH  30  33
ATOM     33  N3  UNL     1      -4.077  -0.799  -5.153  1.00  0.00     0.092 N   
ATOM     34  O3  UNL     1      -3.061  -1.498  -5.279  1.00  0.00    -0.138 OA  
ATOM     35  O4  UNL     1      -4.642  -0.194  -6.072  1.00  0.00    -0.138 OA  
ENDBRANCH  30  33
ENDBRANCH  25  26
ENDBRANCH   3  25
TORSDOF 9
