REMARK SMILES CC(C)C[C@H]([NH2+]Cc1ccc2c(c1)OCO2)c1cn(Cc2cc3ccccc3[nH]2)nn1
REMARK SMILES IDX 17 1 18 2 19 3 30 4 31 5 5 7 4 8 2 9 1 10 3 11 6 12 7 15
REMARK SMILES IDX 8 16 9 17 13 18 10 19 12 20 11 21 14 22 16 23 15 24 20 25
REMARK SMILES IDX 21 26 22 27 29 28 23 29 28 30 24 31 27 32 25 33 26 34
REMARK H PARENT 18 6 6 13 6 14 29 35
ROOT
ATOM     1   C14 UNL     1      -1.179  -0.275   0.364  1.00  0.00     0.127 A   
ATOM     2   C15 UNL     1      -1.133  -1.601   0.731  1.00  0.00     0.046 A   
ATOM     3   N2  UNL     1      -2.336  -1.814   1.348  1.00  0.00    -0.206 N   
ATOM     4   N4  UNL     1      -3.096  -0.701   1.318  1.00  0.00    -0.076 NA  
ATOM     5   N5  UNL     1      -2.393   0.252   0.728  1.00  0.00    -0.132 NA  
ATOM     6   H20 UNL     1      -0.380  -2.373   0.652  1.00  0.00     0.083 HD  
ENDROOT
BRANCH   1   7
ATOM     7   C5  UNL     1      -0.172   0.592  -0.323  1.00  0.00     0.114 C   
BRANCH   7   8
ATOM     8   C4  UNL     1       0.787   1.228   0.705  1.00  0.00     0.064 C   
BRANCH   8   9
ATOM     9   C2  UNL     1       1.952   2.063   0.132  1.00  0.00    -0.012 C   
ATOM     10  C1  UNL     1       2.800   2.616   1.283  1.00  0.00     0.007 C   
ATOM     11  C3  UNL     1       2.839   1.259  -0.819  1.00  0.00     0.007 C   
ENDBRANCH   8   9
ENDBRANCH   7   8
BRANCH   7  12
ATOM     12  N1  UNL     1      -0.865   1.691  -1.092  1.00  0.00     0.249 N   
ATOM     13  H11 UNL     1      -0.207   2.430  -1.348  1.00  0.00     0.199 HD  
ATOM     14  H12 UNL     1      -1.551   2.105  -0.445  1.00  0.00     0.199 HD  
BRANCH  12  15
ATOM     15  C6  UNL     1      -1.606   1.270  -2.318  1.00  0.00     0.164 C   
BRANCH  15  16
ATOM     16  C7  UNL     1      -0.690   0.812  -3.419  1.00  0.00    -0.002 A   
ATOM     17  C8  UNL     1      -0.612  -0.560  -3.759  1.00  0.00     0.012 A   
ATOM     18  C12 UNL     1       0.122   1.739  -4.096  1.00  0.00     0.045 A   
ATOM     19  C9  UNL     1       0.267  -1.006  -4.752  1.00  0.00     0.037 A   
ATOM     20  C11 UNL     1       0.979   1.265  -5.067  1.00  0.00     0.109 A   
ATOM     21  C10 UNL     1       1.052  -0.069  -5.385  1.00  0.00     0.108 A   
ATOM     22  O1  UNL     1       1.834   2.022  -5.804  1.00  0.00    -0.316 OA  
ATOM     23  O2  UNL     1       1.960  -0.319  -6.363  1.00  0.00    -0.316 OA  
ATOM     24  C13 UNL     1       2.435   1.014  -6.648  1.00  0.00     0.337 C   
ENDBRANCH  15  16
ENDBRANCH  12  15
ENDBRANCH   7  12
ENDBRANCH   1   7
BRANCH   3  25
ATOM     25  C16 UNL     1      -2.809  -3.022   2.006  1.00  0.00     0.185 C   
BRANCH  25  26
ATOM     26  C17 UNL     1      -2.211  -3.140   3.366  1.00  0.00     0.027 A   
ATOM     27  C18 UNL     1      -1.259  -4.009   3.862  1.00  0.00     0.031 A   
ATOM     28  N3  UNL     1      -2.582  -2.307   4.398  1.00  0.00    -0.316 N   
ATOM     29  C19 UNL     1      -1.029  -3.676   5.225  1.00  0.00    -0.003 A   
ATOM     30  C24 UNL     1      -1.865  -2.605   5.534  1.00  0.00     0.037 A   
ATOM     31  C20 UNL     1      -0.185  -4.190   6.229  1.00  0.00     0.010 A   
ATOM     32  C23 UNL     1      -1.899  -2.014   6.802  1.00  0.00     0.024 A   
ATOM     33  C21 UNL     1      -0.206  -3.611   7.503  1.00  0.00     0.001 A   
ATOM     34  C22 UNL     1      -1.051  -2.539   7.782  1.00  0.00     0.002 A   
ATOM     35  H28 UNL     1      -3.269  -1.566   4.340  1.00  0.00     0.153 HD  
ENDBRANCH  25  26
ENDBRANCH   3  25
TORSDOF 8
