REMARK SMILES OCc1ccc(F)c(-n2cc([C@@H]([NH2+]Cc3ccc4c(c3)OCO4)C3CCCC3)nn2)c1
REMARK SMILES IDX 9 1 10 2 11 3 29 4 30 5 8 6 3 7 4 8 31 9 5 10 6 11 7 12 2 13
REMARK SMILES IDX 1 14 12 16 13 17 14 20 15 21 16 22 20 23 17 24 19 25 18 26
REMARK SMILES IDX 21 27 23 28 22 29 24 30 25 31 28 32 26 33 27 34
REMARK H PARENT 1 15 13 18 13 19
ROOT
ATOM     1   N1  UNL     1       0.471  -1.468   1.986  1.00  0.00    -0.178 N   
ATOM     2   C7  UNL     1      -0.461  -0.970   1.096  1.00  0.00     0.135 A   
ATOM     3   C8  UNL     1       0.067  -1.205  -0.154  1.00  0.00     0.127 A   
ATOM     4   N3  UNL     1       1.287  -1.800  -0.019  1.00  0.00    -0.131 NA  
ATOM     5   N4  UNL     1       1.530  -1.944   1.273  1.00  0.00    -0.071 NA  
ENDROOT
BRANCH   1   6
ATOM     6   C6  UNL     1       0.451  -1.515   3.400  1.00  0.00     0.094 A   
ATOM     7   C2  UNL     1       1.574  -2.094   5.496  1.00  0.00    -0.020 A   
ATOM     8   C3  UNL     1       0.463  -1.623   6.207  1.00  0.00     0.009 A   
ATOM     9   C23 UNL     1       1.555  -2.044   4.091  1.00  0.00     0.035 A   
ATOM     10  C4  UNL     1      -0.638  -1.101   5.527  1.00  0.00     0.042 A   
ATOM     11  C5  UNL     1      -0.639  -1.047   4.134  1.00  0.00     0.146 A   
ATOM     12  F1  UNL     1      -1.725  -0.535   3.539  1.00  0.00    -0.205 F   
BRANCH   7  13
ATOM     13  C1  UNL     1       2.759  -2.678   6.221  1.00  0.00     0.191 C   
BRANCH  13  14
ATOM     14  O1  UNL     1       3.950  -2.091   5.717  1.00  0.00    -0.392 OA  
ATOM     15  H1  UNL     1       4.689  -2.508   6.190  1.00  0.00     0.211 HD  
ENDBRANCH  13  14
ENDBRANCH   7  13
ENDBRANCH   1   6
BRANCH   3  16
ATOM     16  C9  UNL     1      -0.449  -0.877  -1.518  1.00  0.00     0.117 C   
BRANCH  16  17
ATOM     17  N2  UNL     1       0.691  -0.420  -2.405  1.00  0.00     0.249 N   
ATOM     18  H8  UNL     1       0.384  -0.354  -3.378  1.00  0.00     0.199 HD  
ATOM     19  H9  UNL     1       1.408  -1.158  -2.359  1.00  0.00     0.199 HD  
BRANCH  17  20
ATOM     20  C10 UNL     1       1.353   0.867  -2.032  1.00  0.00     0.164 C   
BRANCH  20  21
ATOM     21  C11 UNL     1       0.432   2.051  -2.139  1.00  0.00    -0.002 A   
ATOM     22  C12 UNL     1       0.026   2.535  -3.407  1.00  0.00     0.012 A   
ATOM     23  C16 UNL     1      -0.061   2.666  -0.974  1.00  0.00     0.045 A   
ATOM     24  C13 UNL     1      -0.867   3.608  -3.514  1.00  0.00     0.037 A   
ATOM     25  C15 UNL     1      -0.939   3.721  -1.115  1.00  0.00     0.109 A   
ATOM     26  C14 UNL     1      -1.333   4.177  -2.349  1.00  0.00     0.108 A   
ATOM     27  O2  UNL     1      -1.515   4.412  -0.097  1.00  0.00    -0.316 OA  
ATOM     28  O3  UNL     1      -2.208   5.213  -2.264  1.00  0.00    -0.316 OA  
ATOM     29  C17 UNL     1      -2.295   5.384  -0.832  1.00  0.00     0.337 C   
ENDBRANCH  20  21
ENDBRANCH  17  20
ENDBRANCH  16  17
BRANCH  16  30
ATOM     30  C18 UNL     1      -1.118  -2.100  -2.182  1.00  0.00     0.043 C   
ATOM     31  C19 UNL     1      -2.360  -2.595  -1.427  1.00  0.00     0.010 C   
ATOM     32  C22 UNL     1      -1.691  -1.833  -3.577  1.00  0.00     0.010 C   
ATOM     33  C20 UNL     1      -3.155  -3.408  -2.446  1.00  0.00     0.001 C   
ATOM     34  C21 UNL     1      -2.615  -3.019  -3.819  1.00  0.00     0.001 C   
ENDBRANCH  16  30
ENDBRANCH   3  16
TORSDOF 8
