REMARK SMILES COc1cccc(Cn2cc([C@@H]([NH2+]Cc3ccc4c(c3)OCO4)C(C)C)nn2)c1
REMARK SMILES IDX 9 1 10 2 11 3 27 4 28 5 8 7 7 8 3 9 4 10 29 11 5 12 6 13
REMARK SMILES IDX 2 14 1 15 12 16 13 17 14 20 15 21 16 22 20 23 17 24 19 25
REMARK SMILES IDX 18 26 21 27 23 28 22 29 24 30 25 31 26 32
REMARK H PARENT 10 6 13 18 13 19
ROOT
ATOM     1   N1  UNL     1       0.354  -0.676  -2.976  1.00  0.00    -0.208 N   
ATOM     2   C8  UNL     1       1.065   0.275  -2.295  1.00  0.00     0.046 A   
ATOM     3   C9  UNL     1       0.400   0.393  -1.095  1.00  0.00     0.127 A   
ATOM     4   N3  UNL     1      -0.688  -0.443  -1.101  1.00  0.00    -0.132 NA  
ATOM     5   N4  UNL     1      -0.721  -1.071  -2.265  1.00  0.00    -0.076 NA  
ATOM     6   H9  UNL     1       1.959   0.728  -2.701  1.00  0.00     0.083 HD  
ENDROOT
BRANCH   1   7
ATOM     7   C7  UNL     1       0.625  -1.233  -4.291  1.00  0.00     0.169 C   
BRANCH   7   8
ATOM     8   C6  UNL     1       1.673  -2.312  -4.208  1.00  0.00    -0.026 A   
ATOM     9   C2  UNL     1       4.012  -2.999  -4.330  1.00  0.00     0.075 A   
ATOM     10  C3  UNL     1       3.643  -4.302  -4.001  1.00  0.00     0.033 A   
ATOM     11  C22 UNL     1       3.026  -2.012  -4.432  1.00  0.00     0.038 A   
ATOM     12  C4  UNL     1       2.300  -4.613  -3.773  1.00  0.00     0.003 A   
ATOM     13  C5  UNL     1       1.320  -3.625  -3.873  1.00  0.00     0.005 A   
BRANCH   9  14
ATOM     14  O1  UNL     1       5.286  -2.555  -4.565  1.00  0.00    -0.349 OA  
ATOM     15  C1  UNL     1       6.316  -3.538  -4.570  1.00  0.00     0.203 C   
ENDBRANCH   9  14
ENDBRANCH   7   8
ENDBRANCH   1   7
BRANCH   3  16
ATOM     16  C10 UNL     1       0.681   1.234   0.112  1.00  0.00     0.117 C   
BRANCH  16  17
ATOM     17  N2  UNL     1      -0.520   1.274   1.019  1.00  0.00     0.249 N   
ATOM     18  H11 UNL     1      -0.274   1.528   1.980  1.00  0.00     0.199 HD  
ATOM     19  H12 UNL     1      -0.889   0.312   1.060  1.00  0.00     0.199 HD  
BRANCH  17  20
ATOM     20  C11 UNL     1      -1.637   2.148   0.564  1.00  0.00     0.164 C   
BRANCH  20  21
ATOM     21  C12 UNL     1      -2.802   2.033   1.506  1.00  0.00    -0.002 A   
ATOM     22  C13 UNL     1      -3.697   0.942   1.393  1.00  0.00     0.012 A   
ATOM     23  C17 UNL     1      -2.977   2.971   2.536  1.00  0.00     0.045 A   
ATOM     24  C14 UNL     1      -4.755   0.785   2.295  1.00  0.00     0.037 A   
ATOM     25  C16 UNL     1      -4.030   2.786   3.408  1.00  0.00     0.109 A   
ATOM     26  C15 UNL     1      -4.893   1.724   3.293  1.00  0.00     0.108 A   
ATOM     27  O2  UNL     1      -4.339   3.593   4.455  1.00  0.00    -0.316 OA  
ATOM     28  O3  UNL     1      -5.854   1.729   4.253  1.00  0.00    -0.316 OA  
ATOM     29  C18 UNL     1      -5.505   2.922   4.987  1.00  0.00     0.337 C   
ENDBRANCH  20  21
ENDBRANCH  17  20
ENDBRANCH  16  17
BRANCH  16  30
ATOM     30  C19 UNL     1       1.924   0.733   0.894  1.00  0.00     0.037 C   
ATOM     31  C20 UNL     1       1.725  -0.631   1.564  1.00  0.00     0.014 C   
ATOM     32  C21 UNL     1       2.393   1.757   1.935  1.00  0.00     0.014 C   
ENDBRANCH  16  30
ENDBRANCH   3  16
TORSDOF 8
