REMARK SMILES COc1ccc(O)c(Cn2cc([C@@H]([NH2+]Cc3ccc4c(c3)OCO4)C3CCCCC3)nn2)c1
REMARK SMILES IDX 10 1 11 2 12 3 31 4 32 5 9 7 8 8 3 9 4 10 33 11 5 12 6 13
REMARK SMILES IDX 2 14 1 15 7 16 13 18 14 19 15 22 16 23 17 24 21 25 18 26
REMARK SMILES IDX 20 27 19 28 22 29 24 30 23 31 25 32 26 33 30 34 27 35 29 36
REMARK SMILES IDX 28 37
REMARK H PARENT 11 6 7 17 14 20 14 21
ROOT
ATOM     1   N1  UNL     1       0.118   1.956   0.899  1.00  0.00    -0.208 N   
ATOM     2   C8  UNL     1       0.625   0.715   1.169  1.00  0.00     0.046 A   
ATOM     3   C9  UNL     1       1.418   0.435   0.079  1.00  0.00     0.127 A   
ATOM     4   N3  UNL     1       1.376   1.494  -0.793  1.00  0.00    -0.132 NA  
ATOM     5   N4  UNL     1       0.580   2.417  -0.281  1.00  0.00    -0.076 NA  
ATOM     6   H9  UNL     1       0.358   0.166   2.061  1.00  0.00     0.083 HD  
ENDROOT
BRANCH   1   7
ATOM     7   C7  UNL     1      -0.819   2.736   1.689  1.00  0.00     0.172 C   
BRANCH   7   8
ATOM     8   C6  UNL     1      -2.234   2.292   1.421  1.00  0.00     0.004 A   
ATOM     9   C2  UNL     1      -4.259   2.441   0.074  1.00  0.00     0.075 A   
ATOM     10  C3  UNL     1      -4.841   1.446   0.861  1.00  0.00     0.036 A   
ATOM     11  C25 UNL     1      -2.957   2.860   0.354  1.00  0.00     0.041 A   
ATOM     12  C4  UNL     1      -4.138   0.871   1.921  1.00  0.00     0.036 A   
ATOM     13  C5  UNL     1      -2.841   1.295   2.191  1.00  0.00     0.076 A   
BRANCH   9  14
ATOM     14  O1  UNL     1      -5.055   2.910  -0.933  1.00  0.00    -0.349 OA  
ATOM     15  C1  UNL     1      -4.562   4.005  -1.695  1.00  0.00     0.203 C   
ENDBRANCH   9  14
BRANCH  13  16
ATOM     16  O2  UNL     1      -2.132   0.728   3.213  1.00  0.00    -0.361 OA  
ATOM     17  H6  UNL     1      -2.746   0.197   3.753  1.00  0.00     0.218 HD  
ENDBRANCH  13  16
ENDBRANCH   7   8
ENDBRANCH   1   7
BRANCH   3  18
ATOM     18  C10 UNL     1       2.179  -0.794  -0.291  1.00  0.00     0.117 C   
BRANCH  18  19
ATOM     19  N2  UNL     1       2.099  -1.022  -1.787  1.00  0.00     0.249 N   
ATOM     20  H11 UNL     1       2.358  -0.129  -2.228  1.00  0.00     0.199 HD  
ATOM     21  H12 UNL     1       2.788  -1.722  -2.077  1.00  0.00     0.199 HD  
BRANCH  19  22
ATOM     22  C11 UNL     1       0.756  -1.390  -2.329  1.00  0.00     0.164 C   
BRANCH  22  23
ATOM     23  C12 UNL     1       0.275  -2.734  -1.855  1.00  0.00    -0.002 A   
ATOM     24  C13 UNL     1       0.878  -3.922  -2.334  1.00  0.00     0.012 A   
ATOM     25  C17 UNL     1      -0.764  -2.817  -0.911  1.00  0.00     0.045 A   
ATOM     26  C14 UNL     1       0.462  -5.175  -1.872  1.00  0.00     0.037 A   
ATOM     27  C16 UNL     1      -1.150  -4.067  -0.478  1.00  0.00     0.109 A   
ATOM     28  C15 UNL     1      -0.553  -5.213  -0.943  1.00  0.00     0.108 A   
ATOM     29  O3  UNL     1      -2.127  -4.323   0.430  1.00  0.00    -0.316 OA  
ATOM     30  O4  UNL     1      -1.078  -6.334  -0.386  1.00  0.00    -0.316 OA  
ATOM     31  C18 UNL     1      -2.100  -5.768   0.462  1.00  0.00     0.337 C   
ENDBRANCH  22  23
ENDBRANCH  19  22
ENDBRANCH  18  19
BRANCH  18  32
ATOM     32  C19 UNL     1       3.677  -0.769   0.120  1.00  0.00     0.043 C   
ATOM     33  C20 UNL     1       4.490   0.383  -0.502  1.00  0.00     0.010 C   
ATOM     34  C24 UNL     1       3.839  -0.767   1.652  1.00  0.00     0.010 C   
ATOM     35  C21 UNL     1       5.959   0.327  -0.080  1.00  0.00     0.001 C   
ATOM     36  C23 UNL     1       5.308  -0.821   2.068  1.00  0.00     0.001 C   
ATOM     37  C22 UNL     1       6.113   0.310   1.437  1.00  0.00     0.000 C   
ENDBRANCH  18  32
ENDBRANCH   3  18
TORSDOF 9
