REMARK SMILES COc1c(C)cccc1Cn1cc([C@@H]([NH2+]Cc2ccc3c(c2)OCO3)C(C)C)nn1
REMARK SMILES IDX 11 1 12 2 13 3 29 4 30 5 10 7 9 8 3 9 4 10 6 11 8 12 7 13
REMARK SMILES IDX 5 14 2 15 1 16 14 17 15 18 16 21 17 22 18 23 22 24 19 25
REMARK SMILES IDX 21 26 20 27 23 28 25 29 24 30 26 31 27 32 28 33
REMARK H PARENT 12 6 15 19 15 20
ROOT
ATOM     1   N1  UNL     1      -0.316   2.276  -1.076  1.00  0.00    -0.208 N   
ATOM     2   C10 UNL     1      -1.067   1.877  -0.004  1.00  0.00     0.046 A   
ATOM     3   C11 UNL     1      -0.814   0.528   0.100  1.00  0.00     0.127 A   
ATOM     4   N3  UNL     1       0.024   0.150  -0.920  1.00  0.00    -0.132 NA  
ATOM     5   N4  UNL     1       0.304   1.221  -1.643  1.00  0.00    -0.076 NA  
ATOM     6   H12 UNL     1      -1.654   2.574   0.579  1.00  0.00     0.083 HD  
ENDROOT
BRANCH   1   7
ATOM     7   C9  UNL     1      -0.163   3.613  -1.623  1.00  0.00     0.172 C   
BRANCH   7   8
ATOM     8   C8  UNL     1       0.720   4.456  -0.739  1.00  0.00     0.002 A   
ATOM     9   C2  UNL     1       0.187   5.263   0.282  1.00  0.00     0.082 A   
ATOM     10  C3  UNL     1       1.024   5.945   1.181  1.00  0.00    -0.020 A   
ATOM     11  C5  UNL     1       2.410   5.886   0.983  1.00  0.00     0.006 A   
ATOM     12  C7  UNL     1       2.113   4.399  -0.897  1.00  0.00     0.008 A   
ATOM     13  C6  UNL     1       2.951   5.122  -0.050  1.00  0.00     0.001 A   
ATOM     14  C4  UNL     1       0.487   6.759   2.323  1.00  0.00     0.047 C   
BRANCH   9  15
ATOM     15  O1  UNL     1      -1.177   5.303   0.438  1.00  0.00    -0.349 OA  
ATOM     16  C1  UNL     1      -1.712   6.484  -0.172  1.00  0.00     0.203 C   
ENDBRANCH   9  15
ENDBRANCH   7   8
ENDBRANCH   1   7
BRANCH   3  17
ATOM     17  C12 UNL     1      -1.293  -0.493   1.082  1.00  0.00     0.117 C   
BRANCH  17  18
ATOM     18  N2  UNL     1      -1.109  -1.879   0.525  1.00  0.00     0.249 N   
ATOM     19  H14 UNL     1      -1.074  -2.593   1.258  1.00  0.00     0.199 HD  
ATOM     20  H15 UNL     1      -0.184  -1.889   0.068  1.00  0.00     0.199 HD  
BRANCH  18  21
ATOM     21  C13 UNL     1      -2.105  -2.287  -0.504  1.00  0.00     0.164 C   
BRANCH  21  22
ATOM     22  C14 UNL     1      -1.746  -3.629  -1.076  1.00  0.00    -0.002 A   
ATOM     23  C15 UNL     1      -0.841  -3.717  -2.162  1.00  0.00     0.012 A   
ATOM     24  C19 UNL     1      -2.257  -4.804  -0.502  1.00  0.00     0.045 A   
ATOM     25  C16 UNL     1      -0.459  -4.960  -2.679  1.00  0.00     0.037 A   
ATOM     26  C18 UNL     1      -1.859  -6.013  -1.036  1.00  0.00     0.109 A   
ATOM     27  C17 UNL     1      -0.986  -6.089  -2.092  1.00  0.00     0.108 A   
ATOM     28  O2  UNL     1      -2.256  -7.237  -0.600  1.00  0.00    -0.316 OA  
ATOM     29  O3  UNL     1      -0.725  -7.371  -2.457  1.00  0.00    -0.316 OA  
ATOM     30  C20 UNL     1      -1.548  -8.098  -1.520  1.00  0.00     0.337 C   
ENDBRANCH  21  22
ENDBRANCH  18  21
ENDBRANCH  17  18
BRANCH  17  31
ATOM     31  C21 UNL     1      -0.580  -0.366   2.454  1.00  0.00     0.037 C   
ATOM     32  C22 UNL     1      -1.284  -1.190   3.538  1.00  0.00     0.014 C   
ATOM     33  C23 UNL     1       0.910  -0.729   2.414  1.00  0.00     0.014 C   
ENDBRANCH  17  31
ENDBRANCH   3  17
TORSDOF 8
