REMARK SMILES Cc1nn(C)cc1CCn1cc([C@H](CC(C)C)[NH2+]Cc2ccc3c(c2)OCO3)nn1
REMARK SMILES IDX 10 1 11 2 12 3 29 4 30 5 9 7 8 8 7 9 2 10 3 11 4 12 6 13
REMARK SMILES IDX 1 14 5 15 13 16 14 17 15 18 16 19 17 20 18 21 19 24 20 25
REMARK SMILES IDX 21 26 25 27 22 28 24 29 23 30 26 31 28 32 27 33
REMARK H PARENT 11 6 18 22 18 23
ROOT
ATOM     1   N3  UNL     1      -0.296  -1.900  -1.649  1.00  0.00    -0.212 N   
ATOM     2   C8  UNL     1      -0.220  -0.549  -1.861  1.00  0.00     0.045 A   
ATOM     3   C9  UNL     1      -0.793  -0.006  -0.731  1.00  0.00     0.127 A   
ATOM     4   N5  UNL     1      -1.346  -1.018   0.012  1.00  0.00    -0.132 NA  
ATOM     5   N6  UNL     1      -1.042  -2.172  -0.565  1.00  0.00    -0.076 NA  
ATOM     6   H12 UNL     1       0.356  -0.129  -2.674  1.00  0.00     0.083 HD  
ENDROOT
BRANCH   1   7
ATOM     7   C7  UNL     1       0.583  -2.906  -2.221  1.00  0.00     0.139 C   
BRANCH   7   8
ATOM     8   C6  UNL     1       1.821  -3.176  -1.345  1.00  0.00     0.060 C   
BRANCH   8   9
ATOM     9   C5  UNL     1       2.462  -1.916  -0.838  1.00  0.00    -0.008 A   
ATOM     10  C2  UNL     1       2.370  -1.364   0.472  1.00  0.00     0.060 A   
ATOM     11  N1  UNL     1       2.767  -0.077   0.483  1.00  0.00    -0.187 NA  
ATOM     12  N2  UNL     1       3.451   0.035  -0.683  1.00  0.00    -0.235 N   
ATOM     13  C4  UNL     1       3.204  -0.991  -1.543  1.00  0.00     0.100 A   
ATOM     14  C1  UNL     1       1.819  -2.001   1.698  1.00  0.00     0.069 C   
ATOM     15  C3  UNL     1       4.267   1.202  -0.929  1.00  0.00     0.159 C   
ENDBRANCH   8   9
ENDBRANCH   7   8
ENDBRANCH   1   7
BRANCH   3  16
ATOM     16  C10 UNL     1      -0.741   1.384  -0.181  1.00  0.00     0.114 C   
BRANCH  16  17
ATOM     17  C11 UNL     1      -0.445   2.476  -1.231  1.00  0.00     0.064 C   
BRANCH  17  18
ATOM     18  C12 UNL     1      -1.532   2.659  -2.313  1.00  0.00    -0.012 C   
ATOM     19  C13 UNL     1      -2.868   3.111  -1.722  1.00  0.00     0.007 C   
ATOM     20  C14 UNL     1      -1.055   3.676  -3.353  1.00  0.00     0.007 C   
ENDBRANCH  17  18
ENDBRANCH  16  17
BRANCH  16  21
ATOM     21  N4  UNL     1       0.351   1.482   0.873  1.00  0.00     0.249 N   
ATOM     22  H23 UNL     1       0.741   2.426   0.911  1.00  0.00     0.199 HD  
ATOM     23  H24 UNL     1       1.150   0.869   0.600  1.00  0.00     0.199 HD  
BRANCH  21  24
ATOM     24  C15 UNL     1      -0.038   1.082   2.255  1.00  0.00     0.164 C   
BRANCH  24  25
ATOM     25  C16 UNL     1      -1.012   2.039   2.889  1.00  0.00    -0.002 A   
ATOM     26  C17 UNL     1      -0.619   3.359   3.220  1.00  0.00     0.012 A   
ATOM     27  C21 UNL     1      -2.335   1.631   3.133  1.00  0.00     0.045 A   
ATOM     28  C18 UNL     1      -1.533   4.266   3.768  1.00  0.00     0.037 A   
ATOM     29  C20 UNL     1      -3.211   2.549   3.675  1.00  0.00     0.109 A   
ATOM     30  C19 UNL     1      -2.823   3.831   3.978  1.00  0.00     0.108 A   
ATOM     31  O1  UNL     1      -4.519   2.320   3.964  1.00  0.00    -0.316 OA  
ATOM     32  O2  UNL     1      -3.839   4.573   4.492  1.00  0.00    -0.316 OA  
ATOM     33  C22 UNL     1      -4.912   3.605   4.496  1.00  0.00     0.337 C   
ENDBRANCH  24  25
ENDBRANCH  21  24
ENDBRANCH  16  21
ENDBRANCH   3  16
TORSDOF 9
