REMARK SMILES Cc1ccc(Cn2cc([C@H](CC(C)C)[NH2+]Cc3ccc4c(c3)OCO4)nn2)cn1
REMARK SMILES IDX 7 1 8 2 9 3 26 4 27 5 6 7 5 8 2 9 3 10 29 11 4 12 28 13 1 14
REMARK SMILES IDX 10 15 11 16 12 17 13 18 14 19 15 20 16 23 17 24 18 25 22 26
REMARK SMILES IDX 19 27 21 28 20 29 23 30 25 31 24 32
REMARK H PARENT 8 6 15 21 15 22
ROOT
ATOM     1   N1  UNL     1       2.465   0.963   1.499  1.00  0.00    -0.208 N   
ATOM     2   C7  UNL     1       1.832   0.849   0.290  1.00  0.00     0.046 A   
ATOM     3   C8  UNL     1       0.783   1.735   0.385  1.00  0.00     0.127 A   
ATOM     4   N3  UNL     1       0.850   2.388   1.586  1.00  0.00    -0.132 NA  
ATOM     5   N4  UNL     1       1.877   1.901   2.262  1.00  0.00    -0.076 NA  
ATOM     6   H8  UNL     1       2.126   0.121  -0.452  1.00  0.00     0.083 HD  
ENDROOT
BRANCH   1   7
ATOM     7   C6  UNL     1       3.477   0.083   2.062  1.00  0.00     0.171 C   
BRANCH   7   8
ATOM     8   C5  UNL     1       2.911  -1.299   2.239  1.00  0.00    -0.010 A   
ATOM     9   C2  UNL     1       1.701  -3.760   2.518  1.00  0.00     0.037 A   
ATOM     10  C3  UNL     1       2.818  -3.647   1.696  1.00  0.00     0.024 A   
ATOM     11  N5  UNL     1       1.191  -2.706   3.200  1.00  0.00    -0.261 NA  
ATOM     12  C4  UNL     1       3.422  -2.401   1.550  1.00  0.00     0.009 A   
ATOM     13  C22 UNL     1       1.815  -1.517   3.068  1.00  0.00     0.116 A   
ATOM     14  C1  UNL     1       1.035  -5.092   2.704  1.00  0.00     0.067 C   
ENDBRANCH   7   8
ENDBRANCH   1   7
BRANCH   3  15
ATOM     15  C9  UNL     1      -0.388   1.960  -0.509  1.00  0.00     0.114 C   
BRANCH  15  16
ATOM     16  C10 UNL     1      -0.296   3.286  -1.286  1.00  0.00     0.064 C   
BRANCH  16  17
ATOM     17  C11 UNL     1       0.870   3.369  -2.296  1.00  0.00    -0.012 C   
ATOM     18  C12 UNL     1       0.892   4.758  -2.943  1.00  0.00     0.007 C   
ATOM     19  C13 UNL     1       0.776   2.296  -3.383  1.00  0.00     0.007 C   
ENDBRANCH  16  17
ENDBRANCH  15  16
BRANCH  15  20
ATOM     20  N2  UNL     1      -1.663   2.017   0.314  1.00  0.00     0.249 N   
ATOM     21  H19 UNL     1      -1.526   2.765   1.008  1.00  0.00     0.199 HD  
ATOM     22  H20 UNL     1      -2.450   2.291  -0.281  1.00  0.00     0.199 HD  
BRANCH  20  23
ATOM     23  C14 UNL     1      -2.024   0.777   1.071  1.00  0.00     0.164 C   
BRANCH  23  24
ATOM     24  C15 UNL     1      -2.258  -0.415   0.185  1.00  0.00    -0.002 A   
ATOM     25  C16 UNL     1      -3.384  -0.468  -0.672  1.00  0.00     0.012 A   
ATOM     26  C20 UNL     1      -1.339  -1.481   0.187  1.00  0.00     0.045 A   
ATOM     27  C17 UNL     1      -3.587  -1.560  -1.522  1.00  0.00     0.037 A   
ATOM     28  C19 UNL     1      -1.570  -2.541  -0.662  1.00  0.00     0.109 A   
ATOM     29  C18 UNL     1      -2.663  -2.580  -1.493  1.00  0.00     0.108 A   
ATOM     30  O1  UNL     1      -0.780  -3.640  -0.788  1.00  0.00    -0.316 OA  
ATOM     31  O2  UNL     1      -2.701  -3.713  -2.244  1.00  0.00    -0.316 OA  
ATOM     32  C21 UNL     1      -1.544  -4.417  -1.741  1.00  0.00     0.337 C   
ENDBRANCH  23  24
ENDBRANCH  20  23
ENDBRANCH  15  20
ENDBRANCH   3  15
TORSDOF 8
