REMARK SMILES Cc1c[nH]c(C)c1[C@H](CO)n1cc([C@@H]([NH2+]Cc2ccc3c(c2)OCO3)C(C)C)nn1
REMARK SMILES IDX 11 1 12 2 13 3 29 4 30 5 8 7 7 8 2 9 3 10 4 11 5 12 1 13
REMARK SMILES IDX 6 15 9 16 10 17 14 19 15 20 16 23 17 24 18 25 22 26 19 27
REMARK SMILES IDX 21 28 20 29 23 30 25 31 24 32 26 33 27 34 28 35
REMARK H PARENT 12 6 4 14 10 18 15 21 15 22
ROOT
ATOM     1   N2  UNL     1       0.509  -1.398  -2.317  1.00  0.00    -0.202 N   
ATOM     2   C9  UNL     1      -0.841  -1.178  -2.436  1.00  0.00     0.046 A   
ATOM     3   C10 UNL     1      -1.056  -0.010  -1.741  1.00  0.00     0.127 A   
ATOM     4   N4  UNL     1       0.135   0.432  -1.222  1.00  0.00    -0.132 NA  
ATOM     5   N5  UNL     1       1.080  -0.423  -1.574  1.00  0.00    -0.075 NA  
ATOM     6   H13 UNL     1      -1.486  -1.851  -2.984  1.00  0.00     0.083 HD  
ENDROOT
BRANCH   1   7
ATOM     7   C7  UNL     1       1.276  -2.511  -2.876  1.00  0.00     0.157 C   
BRANCH   7   8
ATOM     8   C6  UNL     1       1.416  -3.623  -1.853  1.00  0.00    -0.002 A   
ATOM     9   C2  UNL     1       0.793  -4.918  -1.954  1.00  0.00    -0.030 A   
ATOM     10  C3  UNL     1       1.160  -5.632  -0.834  1.00  0.00     0.075 A   
ATOM     11  N1  UNL     1       1.978  -4.853  -0.070  1.00  0.00    -0.324 N   
ATOM     12  C4  UNL     1       2.146  -3.627  -0.667  1.00  0.00     0.009 A   
ATOM     13  C1  UNL     1      -0.080  -5.421  -3.051  1.00  0.00     0.046 C   
ATOM     14  H5  UNL     1       2.402  -5.142   0.804  1.00  0.00     0.152 HD  
ATOM     15  C5  UNL     1       2.993  -2.594  -0.010  1.00  0.00     0.062 C   
ENDBRANCH   7   8
BRANCH   7  16
ATOM     16  C8  UNL     1       2.602  -2.076  -3.519  1.00  0.00     0.186 C   
BRANCH  16  17
ATOM     17  O1  UNL     1       2.351  -1.428  -4.772  1.00  0.00    -0.394 OA  
ATOM     18  H12 UNL     1       3.221  -1.220  -5.161  1.00  0.00     0.210 HD  
ENDBRANCH  16  17
ENDBRANCH   7  16
ENDBRANCH   1   7
BRANCH   3  19
ATOM     19  C11 UNL     1      -2.309   0.756  -1.466  1.00  0.00     0.117 C   
BRANCH  19  20
ATOM     20  N3  UNL     1      -2.166   1.550  -0.196  1.00  0.00     0.249 N   
ATOM     21  H15 UNL     1      -1.235   1.993  -0.229  1.00  0.00     0.199 HD  
ATOM     22  H16 UNL     1      -2.847   2.312  -0.135  1.00  0.00     0.199 HD  
BRANCH  20  23
ATOM     23  C12 UNL     1      -2.220   0.749   1.059  1.00  0.00     0.164 C   
BRANCH  23  24
ATOM     24  C13 UNL     1      -1.989   1.632   2.252  1.00  0.00    -0.002 A   
ATOM     25  C14 UNL     1      -0.669   1.921   2.674  1.00  0.00     0.012 A   
ATOM     26  C18 UNL     1      -3.075   2.220   2.921  1.00  0.00     0.045 A   
ATOM     27  C15 UNL     1      -0.432   2.778   3.755  1.00  0.00     0.037 A   
ATOM     28  C17 UNL     1      -2.807   3.060   3.981  1.00  0.00     0.109 A   
ATOM     29  C16 UNL     1      -1.523   3.332   4.387  1.00  0.00     0.108 A   
ATOM     30  O2  UNL     1      -3.736   3.708   4.731  1.00  0.00    -0.316 OA  
ATOM     31  O3  UNL     1      -1.484   4.183   5.444  1.00  0.00    -0.316 OA  
ATOM     32  C19 UNL     1      -2.891   4.405   5.675  1.00  0.00     0.337 C   
ENDBRANCH  23  24
ENDBRANCH  20  23
ENDBRANCH  19  20
BRANCH  19  33
ATOM     33  C20 UNL     1      -2.695   1.689  -2.644  1.00  0.00     0.037 C   
ATOM     34  C21 UNL     1      -4.124   2.228  -2.496  1.00  0.00     0.014 C   
ATOM     35  C22 UNL     1      -1.724   2.856  -2.860  1.00  0.00     0.014 C   
ENDBRANCH  19  33
ENDBRANCH   3  19
TORSDOF 9
