REMARK SMILES Cc1c[nH]c(C)c1[C@@H](CO)n1cc([C@@H]([NH2+]Cc2ccc3c(c2)OCO3)C(C)C)nn1
REMARK SMILES IDX 11 1 12 2 13 3 29 4 30 5 8 7 7 8 2 9 3 10 4 11 5 12 1 13
REMARK SMILES IDX 6 15 9 16 10 17 14 19 15 20 16 23 17 24 18 25 22 26 19 27
REMARK SMILES IDX 21 28 20 29 23 30 25 31 24 32 26 33 27 34 28 35
REMARK H PARENT 12 6 4 14 10 18 15 21 15 22
ROOT
ATOM     1   N2  UNL     1      -1.707   0.220   0.257  1.00  0.00    -0.202 N   
ATOM     2   C9  UNL     1      -1.079   0.203   1.479  1.00  0.00     0.046 A   
ATOM     3   C10 UNL     1       0.261   0.184   1.169  1.00  0.00     0.127 A   
ATOM     4   N4  UNL     1       0.408   0.163  -0.195  1.00  0.00    -0.132 NA  
ATOM     5   N5  UNL     1      -0.796   0.172  -0.740  1.00  0.00    -0.075 NA  
ATOM     6   H13 UNL     1      -1.632   0.215   2.407  1.00  0.00     0.083 HD  
ENDROOT
BRANCH   1   7
ATOM     7   C7  UNL     1      -3.148   0.252   0.003  1.00  0.00     0.157 C   
BRANCH   7   8
ATOM     8   C6  UNL     1      -3.629   1.687  -0.096  1.00  0.00    -0.002 A   
ATOM     9   C2  UNL     1      -4.444   2.357   0.886  1.00  0.00    -0.030 A   
ATOM     10  C3  UNL     1      -4.665   3.636   0.423  1.00  0.00     0.075 A   
ATOM     11  N1  UNL     1      -4.037   3.779  -0.780  1.00  0.00    -0.324 N   
ATOM     12  C4  UNL     1      -3.401   2.609  -1.116  1.00  0.00     0.009 A   
ATOM     13  C1  UNL     1      -4.970   1.797   2.162  1.00  0.00     0.046 C   
ATOM     14  H5  UNL     1      -4.049   4.621  -1.343  1.00  0.00     0.152 HD  
ATOM     15  C5  UNL     1      -2.642   2.512  -2.393  1.00  0.00     0.062 C   
ENDBRANCH   7   8
BRANCH   7  16
ATOM     16  C8  UNL     1      -3.580  -0.635  -1.175  1.00  0.00     0.186 C   
BRANCH  16  17
ATOM     17  O1  UNL     1      -3.497  -2.018  -0.811  1.00  0.00    -0.394 OA  
ATOM     18  H12 UNL     1      -3.772  -2.529  -1.596  1.00  0.00     0.210 HD  
ENDBRANCH  16  17
ENDBRANCH   7  16
ENDBRANCH   1   7
BRANCH   3  19
ATOM     19  C11 UNL     1       1.478   0.124   2.033  1.00  0.00     0.117 C   
BRANCH  19  20
ATOM     20  N3  UNL     1       2.577  -0.614   1.307  1.00  0.00     0.249 N   
ATOM     21  H15 UNL     1       3.502  -0.394   1.687  1.00  0.00     0.199 HD  
ATOM     22  H16 UNL     1       2.567  -0.263   0.337  1.00  0.00     0.199 HD  
BRANCH  20  23
ATOM     23  C12 UNL     1       2.410  -2.092   1.233  1.00  0.00     0.164 C   
BRANCH  23  24
ATOM     24  C13 UNL     1       3.466  -2.694   0.350  1.00  0.00    -0.002 A   
ATOM     25  C14 UNL     1       4.662  -3.207   0.903  1.00  0.00     0.012 A   
ATOM     26  C18 UNL     1       3.288  -2.696  -1.046  1.00  0.00     0.045 A   
ATOM     27  C15 UNL     1       5.667  -3.727   0.079  1.00  0.00     0.037 A   
ATOM     28  C17 UNL     1       4.299  -3.214  -1.828  1.00  0.00     0.109 A   
ATOM     29  C16 UNL     1       5.455  -3.715  -1.282  1.00  0.00     0.108 A   
ATOM     30  O2  UNL     1       4.291  -3.285  -3.184  1.00  0.00    -0.316 OA  
ATOM     31  O3  UNL     1       6.319  -4.170  -2.226  1.00  0.00    -0.316 OA  
ATOM     32  C19 UNL     1       5.571  -3.910  -3.433  1.00  0.00     0.337 C   
ENDBRANCH  23  24
ENDBRANCH  20  23
ENDBRANCH  19  20
BRANCH  19  33
ATOM     33  C20 UNL     1       2.022   1.512   2.463  1.00  0.00     0.037 C   
ATOM     34  C21 UNL     1       1.036   2.250   3.374  1.00  0.00     0.014 C   
ATOM     35  C22 UNL     1       2.425   2.418   1.293  1.00  0.00     0.014 C   
ENDBRANCH  19  33
ENDBRANCH   3  19
TORSDOF 9
