REMARK SMILES Cc1n[nH]c(C2CCC2)c1Cn1cc([C@@H]([NH2+]Cc2ccc3c(c2)OCO3)C(C)(C)C)nn1
REMARK SMILES IDX 12 1 13 2 14 3 31 4 32 5 11 7 10 8 2 9 3 10 4 11 5 12 1 13
REMARK SMILES IDX 6 15 7 16 9 17 8 18 15 19 16 20 17 23 18 24 19 25 23 26
REMARK SMILES IDX 20 27 22 28 21 29 24 30 26 31 25 32 27 33 28 34 29 35 30 36
REMARK H PARENT 13 6 4 14 16 21 16 22
ROOT
ATOM     1   N3  UNL     1      -1.596   0.945  -0.131  1.00  0.00    -0.208 N   
ATOM     2   C10 UNL     1      -0.469   1.144   0.618  1.00  0.00     0.046 A   
ATOM     3   C11 UNL     1       0.234   2.096  -0.086  1.00  0.00     0.127 A   
ATOM     4   N5  UNL     1      -0.468   2.430  -1.216  1.00  0.00    -0.132 NA  
ATOM     5   N6  UNL     1      -1.593   1.735  -1.223  1.00  0.00    -0.076 NA  
ATOM     6   H14 UNL     1      -0.278   0.599   1.532  1.00  0.00     0.083 HD  
ENDROOT
BRANCH   1   7
ATOM     7   C9  UNL     1      -2.721   0.069   0.150  1.00  0.00     0.173 C   
BRANCH   7   8
ATOM     8   C8  UNL     1      -2.436  -1.318  -0.310  1.00  0.00     0.013 A   
ATOM     9   C2  UNL     1      -2.625  -1.836  -1.625  1.00  0.00     0.062 A   
ATOM     10  N1  UNL     1      -2.284  -3.125  -1.706  1.00  0.00    -0.189 NA  
ATOM     11  N2  UNL     1      -1.875  -3.442  -0.472  1.00  0.00    -0.242 N   
ATOM     12  C3  UNL     1      -1.941  -2.395   0.401  1.00  0.00     0.035 A   
ATOM     13  C1  UNL     1      -3.118  -1.128  -2.836  1.00  0.00     0.069 C   
ATOM     14  H4  UNL     1      -1.559  -4.391  -0.300  1.00  0.00     0.175 HD  
BRANCH  12  15
ATOM     15  C4  UNL     1      -1.522  -2.437   1.895  1.00  0.00     0.036 C   
ATOM     16  C5  UNL     1      -0.051  -2.852   2.149  1.00  0.00     0.010 C   
ATOM     17  C7  UNL     1      -1.928  -3.708   2.682  1.00  0.00     0.010 C   
ATOM     18  C6  UNL     1      -0.559  -3.611   3.392  1.00  0.00     0.001 C   
ENDBRANCH  12  15
ENDBRANCH   7   8
ENDBRANCH   1   7
BRANCH   3  19
ATOM     19  C12 UNL     1       1.583   2.706   0.138  1.00  0.00     0.120 C   
BRANCH  19  20
ATOM     20  N4  UNL     1       2.267   2.846  -1.210  1.00  0.00     0.250 N   
ATOM     21  H16 UNL     1       1.514   2.770  -1.916  1.00  0.00     0.199 HD  
ATOM     22  H17 UNL     1       2.652   3.784  -1.342  1.00  0.00     0.199 HD  
BRANCH  20  23
ATOM     23  C13 UNL     1       3.309   1.834  -1.530  1.00  0.00     0.164 C   
BRANCH  23  24
ATOM     24  C14 UNL     1       2.779   0.432  -1.649  1.00  0.00    -0.002 A   
ATOM     25  C15 UNL     1       3.025  -0.519  -0.629  1.00  0.00     0.012 A   
ATOM     26  C19 UNL     1       2.026   0.057  -2.775  1.00  0.00     0.045 A   
ATOM     27  C16 UNL     1       2.530  -1.825  -0.728  1.00  0.00     0.037 A   
ATOM     28  C18 UNL     1       1.563  -1.240  -2.845  1.00  0.00     0.109 A   
ATOM     29  C17 UNL     1       1.806  -2.155  -1.851  1.00  0.00     0.108 A   
ATOM     30  O1  UNL     1       0.854  -1.768  -3.877  1.00  0.00    -0.316 OA  
ATOM     31  O2  UNL     1       1.276  -3.375  -2.127  1.00  0.00    -0.316 OA  
ATOM     32  C20 UNL     1       0.723  -3.141  -3.442  1.00  0.00     0.337 C   
ENDBRANCH  23  24
ENDBRANCH  20  23
ENDBRANCH  19  20
BRANCH  19  33
ATOM     33  C21 UNL     1       1.555   4.081   0.891  1.00  0.00     0.010 C   
ATOM     34  C22 UNL     1       2.998   4.575   1.149  1.00  0.00     0.017 C   
ATOM     35  C23 UNL     1       0.793   5.175   0.119  1.00  0.00     0.017 C   
ATOM     36  C24 UNL     1       0.884   3.910   2.274  1.00  0.00     0.017 C   
ENDBRANCH  19  33
ENDBRANCH   3  19
TORSDOF 8
