REMARK SMILES COc1cc(C)c(F)cc1Cn1cc([C@@H]([NH2+]Cc2ccc3c(c2)OCO3)C(C)C)nn1
REMARK SMILES IDX 12 1 13 2 14 3 30 4 31 5 11 7 10 8 3 9 4 10 5 11 9 12 7 13
REMARK SMILES IDX 6 14 8 15 2 16 1 17 15 18 16 19 17 22 18 23 19 24 23 25
REMARK SMILES IDX 20 26 22 27 21 28 24 29 26 30 25 31 27 32 28 33 29 34
REMARK H PARENT 13 6 16 20 16 21
ROOT
ATOM     1   N1  UNL     1      -2.528   1.177   0.513  1.00  0.00    -0.208 N   
ATOM     2   C10 UNL     1      -2.287   0.269  -0.482  1.00  0.00     0.046 A   
ATOM     3   C11 UNL     1      -1.569  -0.726   0.142  1.00  0.00     0.127 A   
ATOM     4   N3  UNL     1      -1.413  -0.405   1.467  1.00  0.00    -0.132 NA  
ATOM     5   N4  UNL     1      -2.000   0.760   1.681  1.00  0.00    -0.076 NA  
ATOM     6   H11 UNL     1      -2.623   0.426  -1.498  1.00  0.00     0.083 HD  
ENDROOT
BRANCH   1   7
ATOM     7   C9  UNL     1      -3.235   2.443   0.428  1.00  0.00     0.172 C   
BRANCH   7   8
ATOM     8   C8  UNL     1      -2.315   3.537  -0.059  1.00  0.00     0.005 A   
ATOM     9   C2  UNL     1      -2.230   3.876  -1.423  1.00  0.00     0.080 A   
ATOM     10  C3  UNL     1      -1.345   4.880  -1.838  1.00  0.00     0.040 A   
ATOM     11  C4  UNL     1      -0.548   5.562  -0.908  1.00  0.00    -0.013 A   
ATOM     12  C7  UNL     1      -1.504   4.213   0.866  1.00  0.00     0.047 A   
ATOM     13  C6  UNL     1      -0.633   5.208   0.437  1.00  0.00     0.126 A   
ATOM     14  C5  UNL     1       0.419   6.622  -1.345  1.00  0.00     0.047 C   
ATOM     15  F1  UNL     1       0.140   5.823   1.342  1.00  0.00    -0.207 F   
BRANCH   9  16
ATOM     16  O1  UNL     1      -3.027   3.150  -2.270  1.00  0.00    -0.349 OA  
ATOM     17  C1  UNL     1      -3.215   3.674  -3.582  1.00  0.00     0.203 C   
ENDBRANCH   9  16
ENDBRANCH   7   8
ENDBRANCH   1   7
BRANCH   3  18
ATOM     18  C12 UNL     1      -0.950  -1.980  -0.388  1.00  0.00     0.117 C   
BRANCH  18  19
ATOM     19  N2  UNL     1       0.220  -2.384   0.470  1.00  0.00     0.249 N   
ATOM     20  H13 UNL     1       0.461  -3.372   0.360  1.00  0.00     0.199 HD  
ATOM     21  H14 UNL     1      -0.079  -2.265   1.450  1.00  0.00     0.199 HD  
BRANCH  19  22
ATOM     22  C13 UNL     1       1.448  -1.561   0.289  1.00  0.00     0.164 C   
BRANCH  22  23
ATOM     23  C14 UNL     1       2.517  -1.994   1.251  1.00  0.00    -0.002 A   
ATOM     24  C15 UNL     1       2.577  -1.427   2.547  1.00  0.00     0.012 A   
ATOM     25  C19 UNL     1       3.431  -2.999   0.891  1.00  0.00     0.045 A   
ATOM     26  C16 UNL     1       3.543  -1.843   3.469  1.00  0.00     0.037 A   
ATOM     27  C18 UNL     1       4.369  -3.387   1.825  1.00  0.00     0.109 A   
ATOM     28  C17 UNL     1       4.425  -2.826   3.077  1.00  0.00     0.108 A   
ATOM     29  O2  UNL     1       5.319  -4.341   1.640  1.00  0.00    -0.316 OA  
ATOM     30  O3  UNL     1       5.421  -3.351   3.837  1.00  0.00    -0.316 OA  
ATOM     31  C20 UNL     1       6.001  -4.299   2.914  1.00  0.00     0.337 C   
ENDBRANCH  22  23
ENDBRANCH  19  22
ENDBRANCH  18  19
BRANCH  18  32
ATOM     32  C21 UNL     1      -1.972  -3.141  -0.491  1.00  0.00     0.037 C   
ATOM     33  C22 UNL     1      -1.419  -4.311  -1.314  1.00  0.00     0.014 C   
ATOM     34  C23 UNL     1      -2.472  -3.655   0.864  1.00  0.00     0.014 C   
ENDBRANCH  18  32
ENDBRANCH   3  18
TORSDOF 8
