REMARK SMILES CC(C)C[C@H]([NH2+]Cc1ccc2c(c1)OCO2)c1cn(-c2ccc(N(C)C)cc2)nn1
REMARK SMILES IDX 17 1 18 2 19 3 29 4 30 5 5 6 4 7 2 8 1 9 3 10 6 11 7 14 8 15
REMARK SMILES IDX 9 16 13 17 10 18 12 19 11 20 14 21 16 22 15 23 20 24 21 25
REMARK SMILES IDX 28 26 22 27 27 28 23 29 24 30 25 31 26 32
REMARK H PARENT 6 12 6 13
ROOT
ATOM     1   C14 UNL     1      -1.488  -0.441  -0.298  1.00  0.00     0.127 A   
ATOM     2   C15 UNL     1      -0.123  -0.256  -0.316  1.00  0.00     0.135 A   
ATOM     3   N2  UNL     1       0.406  -1.507  -0.569  1.00  0.00    -0.181 N   
ATOM     4   N4  UNL     1      -0.617  -2.384  -0.740  1.00  0.00    -0.071 NA  
ATOM     5   N5  UNL     1      -1.764  -1.752  -0.561  1.00  0.00    -0.131 NA  
ENDROOT
BRANCH   1   6
ATOM     6   C5  UNL     1      -2.611   0.521  -0.094  1.00  0.00     0.114 C   
BRANCH   6   7
ATOM     7   C4  UNL     1      -3.128   0.525   1.358  1.00  0.00     0.064 C   
BRANCH   7   8
ATOM     8   C2  UNL     1      -2.112   0.995   2.421  1.00  0.00    -0.012 C   
ATOM     9   C1  UNL     1      -2.737   0.888   3.815  1.00  0.00     0.007 C   
ATOM     10  C3  UNL     1      -1.637   2.429   2.180  1.00  0.00     0.007 C   
ENDBRANCH   7   8
ENDBRANCH   6   7
BRANCH   6  11
ATOM     11  N1  UNL     1      -3.790   0.143  -0.972  1.00  0.00     0.249 N   
ATOM     12  H11 UNL     1      -4.620   0.673  -0.692  1.00  0.00     0.199 HD  
ATOM     13  H12 UNL     1      -3.986  -0.851  -0.784  1.00  0.00     0.199 HD  
BRANCH  11  14
ATOM     14  C6  UNL     1      -3.596   0.285  -2.447  1.00  0.00     0.164 C   
BRANCH  14  15
ATOM     15  C7  UNL     1      -3.375   1.709  -2.875  1.00  0.00    -0.002 A   
ATOM     16  C8  UNL     1      -2.100   2.128  -3.325  1.00  0.00     0.012 A   
ATOM     17  C12 UNL     1      -4.425   2.641  -2.807  1.00  0.00     0.045 A   
ATOM     18  C9  UNL     1      -1.868   3.458  -3.692  1.00  0.00     0.037 A   
ATOM     19  C11 UNL     1      -4.162   3.944  -3.175  1.00  0.00     0.109 A   
ATOM     20  C10 UNL     1      -2.920   4.342  -3.604  1.00  0.00     0.108 A   
ATOM     21  O1  UNL     1      -5.059   4.965  -3.161  1.00  0.00    -0.316 OA  
ATOM     22  O2  UNL     1      -2.878   5.664  -3.914  1.00  0.00    -0.316 OA  
ATOM     23  C13 UNL     1      -4.246   6.051  -3.663  1.00  0.00     0.337 C   
ENDBRANCH  14  15
ENDBRANCH  11  14
ENDBRANCH   6  11
ENDBRANCH   1   6
BRANCH   3  24
ATOM     24  C16 UNL     1       1.762  -1.899  -0.672  1.00  0.00     0.058 A   
ATOM     25  C17 UNL     1       2.799  -0.983  -0.498  1.00  0.00     0.028 A   
ATOM     26  C23 UNL     1       2.080  -3.231  -0.945  1.00  0.00     0.028 A   
ATOM     27  C18 UNL     1       4.135  -1.404  -0.603  1.00  0.00     0.025 A   
ATOM     28  C22 UNL     1       3.421  -3.632  -1.044  1.00  0.00     0.025 A   
ATOM     29  C19 UNL     1       4.492  -2.734  -0.887  1.00  0.00     0.028 A   
BRANCH  29  30
ATOM     30  N3  UNL     1       5.824  -3.145  -0.964  1.00  0.00    -0.337 N   
ATOM     31  C20 UNL     1       6.884  -2.144  -1.083  1.00  0.00     0.129 C   
ATOM     32  C21 UNL     1       6.142  -4.469  -1.498  1.00  0.00     0.129 C   
ENDBRANCH  29  30
ENDBRANCH   3  24
TORSDOF 8
