REMARK SMILES Cc1n[nH]c(C(C)C)c1Cn1cc([C@@H]([NH2+]Cc2ccc3c(c2)OCO3)C2CCCCC2)nn1
REMARK SMILES IDX 11 1 12 2 13 3 32 4 33 5 10 7 9 8 2 9 3 10 4 11 5 12 1 13
REMARK SMILES IDX 6 15 7 16 8 17 14 18 15 19 16 22 17 23 18 24 22 25 19 26
REMARK SMILES IDX 21 27 20 28 23 29 25 30 24 31 26 32 27 33 31 34 28 35 30 36
REMARK SMILES IDX 29 37
REMARK H PARENT 12 6 4 14 15 20 15 21
ROOT
ATOM     1   N3  UNL     1      -1.752  -0.039  -1.448  1.00  0.00    -0.208 N   
ATOM     2   C9  UNL     1      -1.022  -0.440  -0.361  1.00  0.00     0.046 A   
ATOM     3   C10 UNL     1       0.014  -1.164  -0.906  1.00  0.00     0.127 A   
ATOM     4   N5  UNL     1      -0.169  -1.257  -2.263  1.00  0.00    -0.132 NA  
ATOM     5   N6  UNL     1      -1.262  -0.584  -2.579  1.00  0.00    -0.076 NA  
ATOM     6   H14 UNL     1      -1.267  -0.129   0.645  1.00  0.00     0.083 HD  
ENDROOT
BRANCH   1   7
ATOM     7   C8  UNL     1      -2.891   0.867  -1.485  1.00  0.00     0.173 C   
BRANCH   7   8
ATOM     8   C7  UNL     1      -2.477   2.233  -1.052  1.00  0.00     0.013 A   
ATOM     9   C2  UNL     1      -1.643   3.139  -1.771  1.00  0.00     0.062 A   
ATOM     10  N1  UNL     1      -1.435   4.266  -1.087  1.00  0.00    -0.189 NA  
ATOM     11  N2  UNL     1      -2.164   4.124   0.024  1.00  0.00    -0.242 N   
ATOM     12  C3  UNL     1      -2.794   2.910   0.118  1.00  0.00     0.034 A   
ATOM     13  C1  UNL     1      -1.003   2.952  -3.099  1.00  0.00     0.069 C   
ATOM     14  H4  UNL     1      -2.179   4.894   0.687  1.00  0.00     0.175 HD  
BRANCH  12  15
ATOM     15  C4  UNL     1      -3.627   2.534   1.310  1.00  0.00     0.029 C   
ATOM     16  C5  UNL     1      -2.775   2.457   2.578  1.00  0.00     0.014 C   
ATOM     17  C6  UNL     1      -4.803   3.494   1.499  1.00  0.00     0.014 C   
ENDBRANCH  12  15
ENDBRANCH   7   8
ENDBRANCH   1   7
BRANCH   3  18
ATOM     18  C11 UNL     1       1.194  -1.826  -0.274  1.00  0.00     0.117 C   
BRANCH  18  19
ATOM     19  N4  UNL     1       1.630  -3.020  -1.100  1.00  0.00     0.249 N   
ATOM     20  H16 UNL     1       2.575  -3.311  -0.834  1.00  0.00     0.199 HD  
ATOM     21  H17 UNL     1       1.671  -2.692  -2.076  1.00  0.00     0.199 HD  
BRANCH  19  22
ATOM     22  C12 UNL     1       0.725  -4.206  -1.080  1.00  0.00     0.164 C   
BRANCH  22  23
ATOM     23  C13 UNL     1       0.692  -4.893   0.258  1.00  0.00    -0.002 A   
ATOM     24  C14 UNL     1       1.794  -5.665   0.696  1.00  0.00     0.012 A   
ATOM     25  C18 UNL     1      -0.426  -4.744   1.098  1.00  0.00     0.045 A   
ATOM     26  C15 UNL     1       1.789  -6.274   1.956  1.00  0.00     0.037 A   
ATOM     27  C17 UNL     1      -0.399  -5.357   2.333  1.00  0.00     0.109 A   
ATOM     28  C16 UNL     1       0.678  -6.099   2.751  1.00  0.00     0.108 A   
ATOM     29  O1  UNL     1      -1.387  -5.305   3.265  1.00  0.00    -0.316 OA  
ATOM     30  O2  UNL     1       0.504  -6.609   3.998  1.00  0.00    -0.316 OA  
ATOM     31  C19 UNL     1      -0.819  -6.124   4.312  1.00  0.00     0.337 C   
ENDBRANCH  22  23
ENDBRANCH  19  22
ENDBRANCH  18  19
BRANCH  18  32
ATOM     32  C20 UNL     1       2.423  -0.891  -0.091  1.00  0.00     0.043 C   
ATOM     33  C21 UNL     1       2.141   0.227   0.933  1.00  0.00     0.010 C   
ATOM     34  C25 UNL     1       2.958  -0.285  -1.405  1.00  0.00     0.010 C   
ATOM     35  C22 UNL     1       3.373   1.099   1.171  1.00  0.00     0.001 C   
ATOM     36  C24 UNL     1       4.183   0.596  -1.161  1.00  0.00     0.001 C   
ATOM     37  C23 UNL     1       3.900   1.686  -0.133  1.00  0.00     0.000 C   
ENDBRANCH  18  32
ENDBRANCH   3  18
TORSDOF 8
