REMARK SMILES CC(C)(C)[C@H]([NH2+]Cc1ccc2c(c1)OCO2)c1cn(Cc2cn[nH]c2)nn1
REMARK SMILES IDX 17 1 18 2 19 3 26 4 27 5 5 7 2 8 1 9 3 10 4 11 6 12 7 15
REMARK SMILES IDX 8 16 9 17 13 18 10 19 12 20 11 21 14 22 16 23 15 24 20 25
REMARK SMILES IDX 21 26 22 27 25 28 23 29 24 30
REMARK H PARENT 18 6 6 13 6 14 24 31
ROOT
ATOM     1   C14 UNL     1      -0.296   1.617   1.521  1.00  0.00     0.127 A   
ATOM     2   C15 UNL     1      -1.580   1.534   2.014  1.00  0.00     0.046 A   
ATOM     3   N2  UNL     1      -2.303   2.363   1.199  1.00  0.00    -0.208 N   
ATOM     4   N5  UNL     1      -1.514   2.919   0.259  1.00  0.00    -0.076 NA  
ATOM     5   N6  UNL     1      -0.283   2.475   0.450  1.00  0.00    -0.132 NA  
ATOM     6   H20 UNL     1      -2.038   0.970   2.815  1.00  0.00     0.083 HD  
ENDROOT
BRANCH   1   7
ATOM     7   C5  UNL     1       0.963   0.893   1.897  1.00  0.00     0.120 C   
BRANCH   7   8
ATOM     8   C2  UNL     1       1.842   1.641   2.959  1.00  0.00     0.010 C   
ATOM     9   C1  UNL     1       2.388   2.985   2.439  1.00  0.00     0.017 C   
ATOM     10  C3  UNL     1       1.018   1.913   4.238  1.00  0.00     0.017 C   
ATOM     11  C4  UNL     1       3.043   0.760   3.380  1.00  0.00     0.017 C   
ENDBRANCH   7   8
BRANCH   7  12
ATOM     12  N1  UNL     1       1.762   0.635   0.641  1.00  0.00     0.250 N   
ATOM     13  H11 UNL     1       1.761   1.516   0.104  1.00  0.00     0.199 HD  
ATOM     14  H12 UNL     1       2.743   0.420   0.836  1.00  0.00     0.199 HD  
BRANCH  12  15
ATOM     15  C6  UNL     1       1.216  -0.420  -0.260  1.00  0.00     0.164 C   
BRANCH  15  16
ATOM     16  C7  UNL     1       2.046  -0.518  -1.508  1.00  0.00    -0.002 A   
ATOM     17  C8  UNL     1       1.752   0.304  -2.622  1.00  0.00     0.012 A   
ATOM     18  C12 UNL     1       3.154  -1.381  -1.557  1.00  0.00     0.045 A   
ATOM     19  C9  UNL     1       2.541   0.260  -3.776  1.00  0.00     0.037 A   
ATOM     20  C11 UNL     1       3.912  -1.399  -2.710  1.00  0.00     0.109 A   
ATOM     21  C10 UNL     1       3.615  -0.602  -3.788  1.00  0.00     0.108 A   
ATOM     22  O1  UNL     1       5.011  -2.170  -2.919  1.00  0.00    -0.316 OA  
ATOM     23  O2  UNL     1       4.488  -0.774  -4.814  1.00  0.00    -0.316 OA  
ATOM     24  C13 UNL     1       5.362  -1.785  -4.269  1.00  0.00     0.337 C   
ENDBRANCH  15  16
ENDBRANCH  12  15
ENDBRANCH   7  12
ENDBRANCH   1   7
BRANCH   3  25
ATOM     25  C16 UNL     1      -3.734   2.628   1.221  1.00  0.00     0.172 C   
BRANCH  25  26
ATOM     26  C17 UNL     1      -4.489   1.432   0.760  1.00  0.00     0.007 A   
ATOM     27  C18 UNL     1      -4.393   0.786  -0.495  1.00  0.00     0.137 A   
ATOM     28  C19 UNL     1      -5.444   0.700   1.436  1.00  0.00     0.099 A   
ATOM     29  N3  UNL     1      -5.181  -0.285  -0.580  1.00  0.00    -0.193 NA  
ATOM     30  N4  UNL     1      -5.843  -0.294   0.588  1.00  0.00    -0.246 N   
ATOM     31  H24 UNL     1      -6.548  -1.010   0.738  1.00  0.00     0.175 HD  
ENDBRANCH  25  26
ENDBRANCH   3  25
TORSDOF 7
