REMARK SMILES CC(C)[C@H]([NH2+]Cc1ccc2c(c1)OCO2)c1cn([C@@H](CO)c2ccncc2Cl)nn1
REMARK SMILES IDX 16 1 17 2 18 3 29 4 30 5 4 7 2 8 1 9 3 10 5 11 6 14 7 15
REMARK SMILES IDX 8 16 12 17 9 18 11 19 10 20 13 21 15 22 14 23 19 24 20 25
REMARK SMILES IDX 21 26 22 28 23 29 27 30 24 31 26 32 25 33 28 34
REMARK H PARENT 17 6 5 12 5 13 21 27
ROOT
ATOM     1   C13 UNL     1       0.722  -1.176  -0.996  1.00  0.00     0.127 A   
ATOM     2   C14 UNL     1       1.530  -2.109  -0.387  1.00  0.00     0.046 A   
ATOM     3   N2  UNL     1       2.557  -1.371   0.141  1.00  0.00    -0.202 N   
ATOM     4   N4  UNL     1       2.381  -0.058  -0.123  1.00  0.00    -0.075 NA  
ATOM     5   N5  UNL     1       1.254   0.075  -0.802  1.00  0.00    -0.132 NA  
ATOM     6   H18 UNL     1       1.493  -3.186  -0.296  1.00  0.00     0.083 HD  
ENDROOT
BRANCH   1   7
ATOM     7   C4  UNL     1      -0.565  -1.315  -1.743  1.00  0.00     0.117 C   
BRANCH   7   8
ATOM     8   C2  UNL     1      -0.336  -1.603  -3.249  1.00  0.00     0.037 C   
ATOM     9   C1  UNL     1       0.272  -0.429  -4.027  1.00  0.00     0.014 C   
ATOM     10  C3  UNL     1      -1.627  -2.063  -3.936  1.00  0.00     0.014 C   
ENDBRANCH   7   8
BRANCH   7  11
ATOM     11  N1  UNL     1      -1.395  -0.073  -1.568  1.00  0.00     0.249 N   
ATOM     12  H9  UNL     1      -0.739   0.723  -1.617  1.00  0.00     0.199 HD  
ATOM     13  H10 UNL     1      -2.062   0.062  -2.332  1.00  0.00     0.199 HD  
BRANCH  11  14
ATOM     14  C5  UNL     1      -2.111   0.033  -0.267  1.00  0.00     0.164 C   
BRANCH  14  15
ATOM     15  C6  UNL     1      -2.720   1.395  -0.115  1.00  0.00    -0.002 A   
ATOM     16  C7  UNL     1      -4.031   1.657  -0.576  1.00  0.00     0.012 A   
ATOM     17  C11 UNL     1      -1.964   2.438   0.451  1.00  0.00     0.045 A   
ATOM     18  C8  UNL     1      -4.595   2.935  -0.451  1.00  0.00     0.037 A   
ATOM     19  C10 UNL     1      -2.549   3.681   0.562  1.00  0.00     0.109 A   
ATOM     20  C9  UNL     1      -3.828   3.924   0.123  1.00  0.00     0.108 A   
ATOM     21  O1  UNL     1      -1.968   4.782   1.101  1.00  0.00    -0.316 OA  
ATOM     22  O2  UNL     1      -4.209   5.211   0.326  1.00  0.00    -0.316 OA  
ATOM     23  C12 UNL     1      -3.029   5.753   0.956  1.00  0.00     0.337 C   
ENDBRANCH  14  15
ENDBRANCH  11  14
ENDBRANCH   7  11
ENDBRANCH   1   7
BRANCH   3  24
ATOM     24  C15 UNL     1       3.743  -1.861   0.850  1.00  0.00     0.157 C   
BRANCH  24  25
ATOM     25  C16 UNL     1       4.915  -2.014  -0.139  1.00  0.00     0.186 C   
BRANCH  25  26
ATOM     26  O3  UNL     1       4.677  -3.119  -1.013  1.00  0.00    -0.394 OA  
ATOM     27  H22 UNL     1       5.463  -3.206  -1.587  1.00  0.00     0.210 HD  
ENDBRANCH  25  26
ENDBRANCH  24  25
BRANCH  24  28
ATOM     28  C17 UNL     1       4.028  -1.006   2.077  1.00  0.00    -0.001 A   
ATOM     29  C18 UNL     1       4.992   0.021   2.048  1.00  0.00     0.027 A   
ATOM     30  C21 UNL     1       3.308  -1.177   3.271  1.00  0.00     0.064 A   
ATOM     31  C19 UNL     1       5.205   0.795   3.180  1.00  0.00     0.111 A   
ATOM     32  C20 UNL     1       3.603  -0.358   4.359  1.00  0.00     0.131 A   
ATOM     33  N3  UNL     1       4.537   0.618   4.337  1.00  0.00    -0.263 NA  
ATOM     34  CL1 UNL     1       2.049  -2.348   3.443  1.00  0.00    -0.082 Cl  
ENDBRANCH  24  28
ENDBRANCH   3  24
TORSDOF 9
