REMARK SMILES CC(C)[C@H]([NH2+]Cc1ccc2c(c1)OCO2)c1cn([C@H](CO)c2ccncc2Cl)nn1
REMARK SMILES IDX 16 1 17 2 18 3 29 4 30 5 4 7 2 8 1 9 3 10 5 11 6 14 7 15
REMARK SMILES IDX 8 16 12 17 9 18 11 19 10 20 13 21 15 22 14 23 19 24 20 25
REMARK SMILES IDX 21 26 22 28 23 29 27 30 24 31 26 32 25 33 28 34
REMARK H PARENT 17 6 5 12 5 13 21 27
ROOT
ATOM     1   C13 UNL     1      -0.083  -0.003  -0.523  1.00  0.00     0.127 A   
ATOM     2   C14 UNL     1      -0.179  -1.221  -1.155  1.00  0.00     0.046 A   
ATOM     3   N2  UNL     1       1.082  -1.747  -1.064  1.00  0.00    -0.202 N   
ATOM     4   N4  UNL     1       1.900  -0.907  -0.391  1.00  0.00    -0.075 NA  
ATOM     5   N5  UNL     1       1.199   0.166  -0.063  1.00  0.00    -0.132 NA  
ATOM     6   H18 UNL     1      -0.990  -1.747  -1.640  1.00  0.00     0.083 HD  
ENDROOT
BRANCH   1   7
ATOM     7   C4  UNL     1      -1.111   1.049  -0.254  1.00  0.00     0.117 C   
BRANCH   7   8
ATOM     8   C2  UNL     1      -1.281   2.022  -1.451  1.00  0.00     0.037 C   
ATOM     9   C1  UNL     1      -0.070   2.930  -1.696  1.00  0.00     0.014 C   
ATOM     10  C3  UNL     1      -2.547   2.875  -1.309  1.00  0.00     0.014 C   
ENDBRANCH   7   8
BRANCH   7  11
ATOM     11  N1  UNL     1      -0.764   1.811   0.996  1.00  0.00     0.249 N   
ATOM     12  H9  UNL     1       0.243   2.027   0.943  1.00  0.00     0.199 HD  
ATOM     13  H10 UNL     1      -1.250   2.710   1.047  1.00  0.00     0.199 HD  
BRANCH  11  14
ATOM     14  C5  UNL     1      -0.983   1.069   2.269  1.00  0.00     0.164 C   
BRANCH  14  15
ATOM     15  C6  UNL     1      -0.549   1.901   3.442  1.00  0.00    -0.002 A   
ATOM     16  C7  UNL     1       0.806   1.892   3.855  1.00  0.00     0.012 A   
ATOM     17  C11 UNL     1      -1.469   2.734   4.099  1.00  0.00     0.045 A   
ATOM     18  C8  UNL     1       1.237   2.694   4.918  1.00  0.00     0.037 A   
ATOM     19  C10 UNL     1      -1.010   3.511   5.143  1.00  0.00     0.109 A   
ATOM     20  C9  UNL     1       0.303   3.491   5.542  1.00  0.00     0.108 A   
ATOM     21  O1  UNL     1      -1.764   4.368   5.880  1.00  0.00    -0.316 OA  
ATOM     22  O2  UNL     1       0.540   4.331   6.583  1.00  0.00    -0.316 OA  
ATOM     23  C12 UNL     1      -0.780   4.867   6.814  1.00  0.00     0.337 C   
ENDBRANCH  14  15
ENDBRANCH  11  14
ENDBRANCH   7  11
ENDBRANCH   1   7
BRANCH   3  24
ATOM     24  C15 UNL     1       1.560  -3.034  -1.575  1.00  0.00     0.157 C   
BRANCH  24  25
ATOM     25  C16 UNL     1       2.031  -3.941  -0.420  1.00  0.00     0.186 C   
BRANCH  25  26
ATOM     26  O3  UNL     1       0.909  -4.361   0.364  1.00  0.00    -0.394 OA  
ATOM     27  H22 UNL     1       1.245  -4.993   1.026  1.00  0.00     0.210 HD  
ENDBRANCH  25  26
ENDBRANCH  24  25
BRANCH  24  28
ATOM     28  C17 UNL     1       2.578  -2.808  -2.684  1.00  0.00    -0.001 A   
ATOM     29  C18 UNL     1       3.956  -2.750  -2.406  1.00  0.00     0.027 A   
ATOM     30  C21 UNL     1       2.184  -2.604  -4.018  1.00  0.00     0.064 A   
ATOM     31  C19 UNL     1       4.856  -2.526  -3.440  1.00  0.00     0.111 A   
ATOM     32  C20 UNL     1       3.161  -2.388  -4.983  1.00  0.00     0.131 A   
ATOM     33  N3  UNL     1       4.487  -2.350  -4.722  1.00  0.00    -0.263 NA  
ATOM     34  CL1 UNL     1       0.532  -2.589  -4.513  1.00  0.00    -0.082 Cl  
ENDBRANCH  24  28
ENDBRANCH   3  24
TORSDOF 9
