REMARK SMILES Cc1cc(Cn2cc([C@@H]([NH2+]Cc3ccc4c(c3)OCO4)C3CCCCC3)nn2)cc(Cl)n1
REMARK SMILES IDX 6 1 7 2 8 3 27 4 28 5 5 7 4 8 2 9 3 10 32 11 30 12 29 13
REMARK SMILES IDX 1 14 31 15 9 16 10 17 11 20 12 21 13 22 17 23 14 24 16 25
REMARK SMILES IDX 15 26 18 27 20 28 19 29 21 30 22 31 26 32 23 33 25 34 24 35
REMARK H PARENT 7 6 10 18 10 19
ROOT
ATOM     1   N1  UNL     1      -0.785   0.381   3.008  1.00  0.00    -0.208 N   
ATOM     2   C6  UNL     1      -1.115  -0.748   2.311  1.00  0.00     0.046 A   
ATOM     3   C7  UNL     1      -0.102  -0.875   1.388  1.00  0.00     0.127 A   
ATOM     4   N3  UNL     1       0.787   0.152   1.553  1.00  0.00    -0.132 NA  
ATOM     5   N4  UNL     1       0.365   0.905   2.552  1.00  0.00    -0.076 NA  
ATOM     6   H7  UNL     1      -2.008  -1.317   2.521  1.00  0.00     0.083 HD  
ENDROOT
BRANCH   1   7
ATOM     7   C5  UNL     1      -1.526   1.035   4.073  1.00  0.00     0.169 C   
BRANCH   7   8
ATOM     8   C4  UNL     1      -2.574   1.963   3.512  1.00  0.00    -0.024 A   
ATOM     9   C2  UNL     1      -4.878   2.597   3.184  1.00  0.00     0.039 A   
ATOM     10  C3  UNL     1      -3.935   1.738   3.747  1.00  0.00     0.029 A   
ATOM     11  N5  UNL     1      -4.533   3.656   2.425  1.00  0.00    -0.241 NA  
ATOM     12  C24 UNL     1      -3.220   3.876   2.236  1.00  0.00     0.129 A   
ATOM     13  C23 UNL     1      -2.215   3.077   2.749  1.00  0.00     0.046 A   
ATOM     14  C1  UNL     1      -6.341   2.401   3.444  1.00  0.00     0.067 C   
ATOM     15  CL1 UNL     1      -2.852   5.235   1.264  1.00  0.00    -0.062 Cl  
ENDBRANCH   7   8
ENDBRANCH   1   7
BRANCH   3  16
ATOM     16  C8  UNL     1       0.112  -1.862   0.284  1.00  0.00     0.117 C   
BRANCH  16  17
ATOM     17  N2  UNL     1       0.807  -1.204  -0.877  1.00  0.00     0.249 N   
ATOM     18  H9  UNL     1       1.307  -1.880  -1.462  1.00  0.00     0.199 HD  
ATOM     19  H10 UNL     1       1.529  -0.581  -0.480  1.00  0.00     0.199 HD  
BRANCH  17  20
ATOM     20  C9  UNL     1      -0.069  -0.369  -1.747  1.00  0.00     0.164 C   
BRANCH  20  21
ATOM     21  C10 UNL     1       0.732   0.338  -2.800  1.00  0.00    -0.002 A   
ATOM     22  C11 UNL     1       1.040   1.712  -2.661  1.00  0.00     0.012 A   
ATOM     23  C15 UNL     1       1.207  -0.366  -3.916  1.00  0.00     0.045 A   
ATOM     24  C12 UNL     1       1.792   2.384  -3.630  1.00  0.00     0.037 A   
ATOM     25  C14 UNL     1       1.948   0.324  -4.851  1.00  0.00     0.109 A   
ATOM     26  C13 UNL     1       2.228   1.660  -4.716  1.00  0.00     0.108 A   
ATOM     27  O1  UNL     1       2.467  -0.203  -5.988  1.00  0.00    -0.316 OA  
ATOM     28  O2  UNL     1       2.949   2.144  -5.760  1.00  0.00    -0.316 OA  
ATOM     29  C16 UNL     1       3.107   0.959  -6.564  1.00  0.00     0.337 C   
ENDBRANCH  20  21
ENDBRANCH  17  20
ENDBRANCH  16  17
BRANCH  16  30
ATOM     30  C17 UNL     1       0.898  -3.115   0.756  1.00  0.00     0.043 C   
ATOM     31  C18 UNL     1       2.387  -2.844   1.065  1.00  0.00     0.010 C   
ATOM     32  C22 UNL     1       0.765  -4.271  -0.255  1.00  0.00     0.010 C   
ATOM     33  C19 UNL     1       3.107  -4.110   1.529  1.00  0.00     0.001 C   
ATOM     34  C21 UNL     1       1.469  -5.529   0.244  1.00  0.00     0.001 C   
ATOM     35  C20 UNL     1       2.941  -5.252   0.534  1.00  0.00     0.000 C   
ENDBRANCH  16  30
ENDBRANCH   3  16
TORSDOF 7
