REMARK SMILES Fc1cccc(F)c1-n1cc([C@@H]([NH2+]Cc2ccc3c(c2)OCO3)C2CCCC2)nn1
REMARK SMILES IDX 12 1 11 2 9 3 10 4 30 5 29 6 8 7 2 8 3 9 4 10 6 11 5 12 1 13
REMARK SMILES IDX 7 14 13 15 14 18 15 19 16 20 20 21 17 22 19 23 18 24 21 25
REMARK SMILES IDX 23 26 22 27 24 28 25 29 28 30 26 31 27 32
REMARK H PARENT 13 16 13 17
ROOT
ATOM     1   C9  UNL     1      -0.461   1.505   0.246  1.00  0.00     0.117 C   
ENDROOT
BRANCH   1   2
ATOM     2   C8  UNL     1       0.642   1.524  -0.764  1.00  0.00     0.127 A   
ATOM     3   N1  UNL     1       2.101   1.937  -2.357  1.00  0.00    -0.175 N   
ATOM     4   C7  UNL     1       1.040   2.491  -1.658  1.00  0.00     0.135 A   
ATOM     5   N4  UNL     1       2.283   0.670  -1.900  1.00  0.00    -0.071 NA  
ATOM     6   N3  UNL     1       1.425   0.421  -0.927  1.00  0.00    -0.131 NA  
BRANCH   3   7
ATOM     7   C6  UNL     1       2.898   2.495  -3.382  1.00  0.00     0.129 A   
ATOM     8   C1  UNL     1       3.863   1.721  -4.036  1.00  0.00     0.149 A   
ATOM     9   C2  UNL     1       4.657   2.261  -5.051  1.00  0.00     0.041 A   
ATOM     10  C3  UNL     1       4.500   3.591  -5.428  1.00  0.00     0.006 A   
ATOM     11  C5  UNL     1       2.754   3.828  -3.773  1.00  0.00     0.149 A   
ATOM     12  C4  UNL     1       3.545   4.375  -4.786  1.00  0.00     0.041 A   
ATOM     13  F1  UNL     1       4.057   0.430  -3.735  1.00  0.00    -0.205 F   
ATOM     14  F2  UNL     1       1.867   4.643  -3.186  1.00  0.00    -0.205 F   
ENDBRANCH   3   7
ENDBRANCH   1   2
BRANCH   1  15
ATOM     15  N2  UNL     1      -0.852   0.087   0.566  1.00  0.00     0.249 N   
ATOM     16  H6  UNL     1       0.023  -0.455   0.638  1.00  0.00     0.199 HD  
ATOM     17  H7  UNL     1      -1.310   0.006   1.479  1.00  0.00     0.199 HD  
BRANCH  15  18
ATOM     18  C10 UNL     1      -1.691  -0.591  -0.460  1.00  0.00     0.164 C   
BRANCH  18  19
ATOM     19  C11 UNL     1      -1.946  -2.017  -0.063  1.00  0.00    -0.002 A   
ATOM     20  C12 UNL     1      -1.006  -3.024  -0.392  1.00  0.00     0.012 A   
ATOM     21  C16 UNL     1      -3.083  -2.350   0.691  1.00  0.00     0.045 A   
ATOM     22  C13 UNL     1      -1.200  -4.348   0.015  1.00  0.00     0.037 A   
ATOM     23  C15 UNL     1      -3.245  -3.666   1.075  1.00  0.00     0.109 A   
ATOM     24  C14 UNL     1      -2.330  -4.636   0.747  1.00  0.00     0.108 A   
ATOM     25  O1  UNL     1      -4.284  -4.154   1.801  1.00  0.00    -0.316 OA  
ATOM     26  O2  UNL     1      -2.679  -5.859   1.224  1.00  0.00    -0.316 OA  
ATOM     27  C17 UNL     1      -3.933  -5.556   1.873  1.00  0.00     0.337 C   
ENDBRANCH  18  19
ENDBRANCH  15  18
ENDBRANCH   1  15
BRANCH   1  28
ATOM     28  C18 UNL     1      -0.073   2.255   1.536  1.00  0.00     0.043 C   
ATOM     29  C19 UNL     1       1.041   1.616   2.377  1.00  0.00     0.010 C   
ATOM     30  C22 UNL     1      -1.242   2.470   2.519  1.00  0.00     0.010 C   
ATOM     31  C20 UNL     1       0.820   2.214   3.758  1.00  0.00     0.001 C   
ATOM     32  C21 UNL     1      -0.691   2.168   3.911  1.00  0.00     0.001 C   
ENDBRANCH   1  28
TORSDOF 6
