REMARK SMILES CC(C)(C)[C@H]([NH2+]Cc1ccc2c(c1)OCO2)c1cn(Cc2cc(F)nc(F)c2)nn1
REMARK SMILES IDX 17 1 18 2 19 3 29 4 30 5 5 7 2 8 1 9 3 10 4 11 6 12 7 15
REMARK SMILES IDX 8 16 9 17 13 18 10 19 12 20 11 21 14 22 16 23 15 24 20 25
REMARK SMILES IDX 21 26 22 27 28 28 23 29 26 30 25 31 24 32 27 33
REMARK H PARENT 18 6 6 13 6 14
ROOT
ATOM     1   C14 UNL     1       0.424  -0.826   1.119  1.00  0.00     0.127 A   
ATOM     2   C15 UNL     1      -0.782  -1.342   0.708  1.00  0.00     0.046 A   
ATOM     3   N2  UNL     1      -1.573  -1.269   1.822  1.00  0.00    -0.208 N   
ATOM     4   N4  UNL     1      -0.901  -0.715   2.848  1.00  0.00    -0.076 NA  
ATOM     5   N5  UNL     1       0.321  -0.436   2.430  1.00  0.00    -0.132 NA  
ATOM     6   H20 UNL     1      -1.138  -1.733  -0.234  1.00  0.00     0.083 HD  
ENDROOT
BRANCH   1   7
ATOM     7   C5  UNL     1       1.705  -0.572   0.380  1.00  0.00     0.120 C   
BRANCH   7   8
ATOM     8   C2  UNL     1       2.761  -1.725   0.510  1.00  0.00     0.010 C   
ATOM     9   C1  UNL     1       3.986  -1.428  -0.385  1.00  0.00     0.017 C   
ATOM     10  C3  UNL     1       2.158  -3.057   0.010  1.00  0.00     0.017 C   
ATOM     11  C4  UNL     1       3.249  -1.929   1.958  1.00  0.00     0.017 C   
ENDBRANCH   7   8
BRANCH   7  12
ATOM     12  N1  UNL     1       2.285   0.743   0.874  1.00  0.00     0.250 N   
ATOM     13  H11 UNL     1       1.876   0.897   1.809  1.00  0.00     0.199 HD  
ATOM     14  H12 UNL     1       3.292   0.673   1.032  1.00  0.00     0.199 HD  
BRANCH  12  15
ATOM     15  C6  UNL     1       2.017   1.944   0.037  1.00  0.00     0.164 C   
BRANCH  15  16
ATOM     16  C7  UNL     1       0.557   2.259  -0.141  1.00  0.00    -0.002 A   
ATOM     17  C8  UNL     1      -0.221   2.705   0.954  1.00  0.00     0.012 A   
ATOM     18  C12 UNL     1      -0.052   2.095  -1.398  1.00  0.00     0.045 A   
ATOM     19  C9  UNL     1      -1.586   2.974   0.804  1.00  0.00     0.037 A   
ATOM     20  C11 UNL     1      -1.399   2.369  -1.512  1.00  0.00     0.109 A   
ATOM     21  C10 UNL     1      -2.144   2.796  -0.441  1.00  0.00     0.108 A   
ATOM     22  O1  UNL     1      -2.137   2.257  -2.647  1.00  0.00    -0.316 OA  
ATOM     23  O2  UNL     1      -3.445   3.011  -0.768  1.00  0.00    -0.316 OA  
ATOM     24  C13 UNL     1      -3.436   2.689  -2.178  1.00  0.00     0.337 C   
ENDBRANCH  15  16
ENDBRANCH  12  15
ENDBRANCH   7  12
ENDBRANCH   1   7
BRANCH   3  25
ATOM     25  C16 UNL     1      -2.922  -1.776   2.019  1.00  0.00     0.169 C   
BRANCH  25  26
ATOM     26  C17 UNL     1      -3.905  -1.170   1.052  1.00  0.00    -0.019 A   
ATOM     27  C18 UNL     1      -4.259  -1.832  -0.128  1.00  0.00     0.066 A   
ATOM     28  C21 UNL     1      -4.484   0.077   1.296  1.00  0.00     0.066 A   
ATOM     29  C19 UNL     1      -5.147  -1.219  -0.998  1.00  0.00     0.215 A   
ATOM     30  C20 UNL     1      -5.374   0.593   0.365  1.00  0.00     0.215 A   
ATOM     31  N3  UNL     1      -5.708  -0.018  -0.785  1.00  0.00    -0.191 NA  
ATOM     32  F1  UNL     1      -5.455  -1.858  -2.135  1.00  0.00    -0.185 F   
ATOM     33  F2  UNL     1      -5.932   1.784   0.615  1.00  0.00    -0.185 F   
ENDBRANCH  25  26
ENDBRANCH   3  25
TORSDOF 7
