REMARK SMILES Cn1nc(C(C)(C)C)cc1Cn1cc([C@@H]([NH2+]Cc2ccc3c(c2)OCO3)C(C)(C)C)nn1
REMARK SMILES IDX 12 1 13 2 14 3 31 4 32 5 11 7 10 8 2 9 3 10 4 11 9 12 1 13
REMARK SMILES IDX 5 14 6 15 7 16 8 17 15 18 16 19 17 22 18 23 19 24 23 25
REMARK SMILES IDX 20 26 22 27 21 28 24 29 26 30 25 31 27 32 28 33 29 34 30 35
REMARK H PARENT 13 6 16 20 16 21
ROOT
ATOM     1   N3  UNL     1      -0.658   1.508  -3.133  1.00  0.00    -0.206 N   
ATOM     2   C10 UNL     1      -1.211   0.257  -3.062  1.00  0.00     0.046 A   
ATOM     3   C11 UNL     1      -2.149   0.366  -2.058  1.00  0.00     0.127 A   
ATOM     4   N5  UNL     1      -2.141   1.649  -1.571  1.00  0.00    -0.132 NA  
ATOM     5   N6  UNL     1      -1.229   2.337  -2.237  1.00  0.00    -0.076 NA  
ATOM     6   H16 UNL     1      -0.865  -0.564  -3.675  1.00  0.00     0.083 HD  
ENDROOT
BRANCH   1   7
ATOM     7   C9  UNL     1       0.480   1.942  -3.931  1.00  0.00     0.187 C   
BRANCH   7   8
ATOM     8   C8  UNL     1       1.744   1.473  -3.299  1.00  0.00     0.049 A   
ATOM     9   N1  UNL     1       2.314   2.046  -2.191  1.00  0.00    -0.231 N   
ATOM     10  N2  UNL     1       3.366   1.352  -1.728  1.00  0.00    -0.186 NA  
ATOM     11  C2  UNL     1       3.574   0.385  -2.631  1.00  0.00     0.066 A   
ATOM     12  C7  UNL     1       2.575   0.421  -3.634  1.00  0.00     0.048 A   
ATOM     13  C1  UNL     1       1.904   3.225  -1.462  1.00  0.00     0.159 C   
BRANCH  11  14
ATOM     14  C3  UNL     1       4.741  -0.577  -2.463  1.00  0.00     0.006 C   
ATOM     15  C4  UNL     1       4.531  -1.438  -1.200  1.00  0.00     0.017 C   
ATOM     16  C5  UNL     1       6.065   0.203  -2.324  1.00  0.00     0.017 C   
ATOM     17  C6  UNL     1       4.878  -1.527  -3.671  1.00  0.00     0.017 C   
ENDBRANCH  11  14
ENDBRANCH   7   8
ENDBRANCH   1   7
BRANCH   3  18
ATOM     18  C12 UNL     1      -3.009  -0.670  -1.400  1.00  0.00     0.120 C   
BRANCH  18  19
ATOM     19  N4  UNL     1      -2.969  -0.448   0.094  1.00  0.00     0.250 N   
ATOM     20  H18 UNL     1      -3.131   0.558   0.248  1.00  0.00     0.199 HD  
ATOM     21  H19 UNL     1      -3.723  -0.938   0.583  1.00  0.00     0.199 HD  
BRANCH  19  22
ATOM     22  C13 UNL     1      -1.676  -0.791   0.753  1.00  0.00     0.164 C   
BRANCH  22  23
ATOM     23  C14 UNL     1      -1.728  -0.461   2.217  1.00  0.00    -0.002 A   
ATOM     24  C15 UNL     1      -1.503   0.867   2.654  1.00  0.00     0.012 A   
ATOM     25  C19 UNL     1      -2.044  -1.457   3.157  1.00  0.00     0.045 A   
ATOM     26  C16 UNL     1      -1.581   1.199   4.011  1.00  0.00     0.037 A   
ATOM     27  C18 UNL     1      -2.108  -1.095   4.487  1.00  0.00     0.109 A   
ATOM     28  C17 UNL     1      -1.884   0.194   4.902  1.00  0.00     0.108 A   
ATOM     29  O1  UNL     1      -2.389  -1.933   5.520  1.00  0.00    -0.316 OA  
ATOM     30  O2  UNL     1      -1.998   0.332   6.249  1.00  0.00    -0.316 OA  
ATOM     31  C20 UNL     1      -2.281  -1.029   6.642  1.00  0.00     0.337 C   
ENDBRANCH  22  23
ENDBRANCH  19  22
ENDBRANCH  18  19
BRANCH  18  32
ATOM     32  C21 UNL     1      -4.490  -0.700  -1.913  1.00  0.00     0.010 C   
ATOM     33  C22 UNL     1      -5.237  -1.915  -1.315  1.00  0.00     0.017 C   
ATOM     34  C23 UNL     1      -5.277   0.575  -1.551  1.00  0.00     0.017 C   
ATOM     35  C24 UNL     1      -4.518  -0.867  -3.450  1.00  0.00     0.017 C   
ENDBRANCH  18  32
ENDBRANCH   3  18
TORSDOF 8
