REMARK SMILES c1cc2ccc(Cn3cc([C@@H]([NH2+]Cc4ccc5c(c4)OCO5)C4CCCCC4)nn3)cc2[nH]1
REMARK SMILES IDX 8 1 9 2 10 3 29 4 30 5 7 7 6 8 1 9 2 10 33 11 3 12 32 13
REMARK SMILES IDX 4 14 31 15 5 16 11 18 12 19 13 22 14 23 15 24 19 25 16 26
REMARK SMILES IDX 18 27 17 28 20 29 22 30 21 31 23 32 24 33 28 34 25 35 27 36
REMARK SMILES IDX 26 37
REMARK H PARENT 9 6 33 17 12 20 12 21
ROOT
ATOM     1   N1  UNL     1       1.664  -2.391  -1.430  1.00  0.00    -0.208 N   
ATOM     2   C8  UNL     1       0.502  -1.825  -0.981  1.00  0.00     0.046 A   
ATOM     3   C9  UNL     1       0.482  -0.584  -1.576  1.00  0.00     0.127 A   
ATOM     4   N3  UNL     1       1.592  -0.450  -2.373  1.00  0.00    -0.132 NA  
ATOM     5   N4  UNL     1       2.312  -1.555  -2.267  1.00  0.00    -0.076 NA  
ATOM     6   H7  UNL     1      -0.160  -2.331  -0.291  1.00  0.00     0.083 HD  
ENDROOT
BRANCH   1   7
ATOM     7   C7  UNL     1       2.217  -3.696  -1.104  1.00  0.00     0.169 C   
BRANCH   7   8
ATOM     8   C6  UNL     1       2.549  -3.786   0.366  1.00  0.00    -0.027 A   
ATOM     9   C1  UNL     1       4.812  -3.008   4.311  1.00  0.00     0.072 A   
ATOM     10  C2  UNL     1       3.652  -3.740   4.427  1.00  0.00     0.025 A   
ATOM     11  N5  UNL     1       4.989  -2.708   2.987  1.00  0.00    -0.321 N   
ATOM     12  C3  UNL     1       3.100  -3.884   3.125  1.00  0.00    -0.003 A   
ATOM     13  C26 UNL     1       3.949  -3.219   2.241  1.00  0.00     0.037 A   
ATOM     14  C4  UNL     1       1.956  -4.523   2.615  1.00  0.00     0.010 A   
ATOM     15  C25 UNL     1       3.703  -3.151   0.863  1.00  0.00     0.029 A   
ATOM     16  C5  UNL     1       1.693  -4.469   1.241  1.00  0.00     0.006 A   
ATOM     17  H30 UNL     1       5.772  -2.192   2.608  1.00  0.00     0.152 HD  
ENDBRANCH   7   8
ENDBRANCH   1   7
BRANCH   3  18
ATOM     18  C10 UNL     1      -0.490   0.549  -1.462  1.00  0.00     0.117 C   
BRANCH  18  19
ATOM     19  N2  UNL     1       0.146   1.834  -1.936  1.00  0.00     0.249 N   
ATOM     20  H9  UNL     1      -0.560   2.527  -2.197  1.00  0.00     0.199 HD  
ATOM     21  H10 UNL     1       0.666   1.592  -2.792  1.00  0.00     0.199 HD  
BRANCH  19  22
ATOM     22  C11 UNL     1       1.124   2.460  -0.998  1.00  0.00     0.164 C   
BRANCH  22  23
ATOM     23  C12 UNL     1       0.457   3.126   0.174  1.00  0.00    -0.002 A   
ATOM     24  C13 UNL     1       0.537   2.550   1.465  1.00  0.00     0.012 A   
ATOM     25  C17 UNL     1      -0.265   4.319  -0.007  1.00  0.00     0.045 A   
ATOM     26  C14 UNL     1      -0.095   3.149   2.560  1.00  0.00     0.037 A   
ATOM     27  C16 UNL     1      -0.875   4.883   1.093  1.00  0.00     0.109 A   
ATOM     28  C15 UNL     1      -0.795   4.316   2.341  1.00  0.00     0.108 A   
ATOM     29  O1  UNL     1      -1.605   6.028   1.089  1.00  0.00    -0.316 OA  
ATOM     30  O2  UNL     1      -1.463   5.033   3.280  1.00  0.00    -0.316 OA  
ATOM     31  C18 UNL     1      -1.945   6.142   2.490  1.00  0.00     0.337 C   
ENDBRANCH  22  23
ENDBRANCH  19  22
ENDBRANCH  18  19
BRANCH  18  32
ATOM     32  C19 UNL     1      -1.800   0.271  -2.247  1.00  0.00     0.043 C   
ATOM     33  C20 UNL     1      -2.923   1.250  -1.851  1.00  0.00     0.010 C   
ATOM     34  C24 UNL     1      -1.624   0.256  -3.778  1.00  0.00     0.010 C   
ATOM     35  C21 UNL     1      -4.233   0.918  -2.564  1.00  0.00     0.001 C   
ATOM     36  C23 UNL     1      -2.937  -0.079  -4.486  1.00  0.00     0.001 C   
ATOM     37  C22 UNL     1      -4.056   0.874  -4.079  1.00  0.00     0.000 C   
ENDBRANCH  18  32
ENDBRANCH   3  18
TORSDOF 7
