REMARK SMILES Cc1cn(C)nc1CCn1cc([C@@H]([NH2+]Cc2ccc3c(c2)OCO3)C2CCCCC2)nn1
REMARK SMILES IDX 10 1 11 2 12 3 31 4 32 5 9 7 8 8 7 9 2 10 3 11 4 12 6 13
REMARK SMILES IDX 1 14 5 15 13 16 14 17 15 20 16 21 17 22 21 23 18 24 20 25
REMARK SMILES IDX 19 26 22 27 24 28 23 29 25 30 26 31 30 32 27 33 29 34 28 35
REMARK H PARENT 11 6 14 18 14 19
ROOT
ATOM     1   N3  UNL     1       1.617  -1.161  -1.701  1.00  0.00    -0.212 N   
ATOM     2   C8  UNL     1       2.136  -0.337  -0.743  1.00  0.00     0.045 A   
ATOM     3   C9  UNL     1       1.369  -0.606   0.368  1.00  0.00     0.127 A   
ATOM     4   N5  UNL     1       0.470  -1.596   0.070  1.00  0.00    -0.132 NA  
ATOM     5   N6  UNL     1       0.649  -1.944  -1.193  1.00  0.00    -0.076 NA  
ATOM     6   H12 UNL     1       2.925   0.372  -0.951  1.00  0.00     0.083 HD  
ENDROOT
BRANCH   1   7
ATOM     7   C7  UNL     1       2.002  -1.263  -3.093  1.00  0.00     0.140 C   
BRANCH   7   8
ATOM     8   C6  UNL     1       1.738   0.015  -3.885  1.00  0.00     0.079 C   
BRANCH   8   9
ATOM     9   C5  UNL     1       0.284   0.329  -4.030  1.00  0.00     0.065 A   
ATOM     10  C2  UNL     1      -0.620  -0.170  -5.011  1.00  0.00    -0.012 A   
ATOM     11  C3  UNL     1      -1.815   0.449  -4.715  1.00  0.00     0.100 A   
ATOM     12  N1  UNL     1      -1.575   1.264  -3.650  1.00  0.00    -0.235 N   
ATOM     13  N2  UNL     1      -0.311   1.181  -3.180  1.00  0.00    -0.187 NA  
ATOM     14  C1  UNL     1      -0.348  -1.116  -6.121  1.00  0.00     0.048 C   
ATOM     15  C4  UNL     1      -2.507   2.181  -3.043  1.00  0.00     0.159 C   
ENDBRANCH   8   9
ENDBRANCH   7   8
ENDBRANCH   1   7
BRANCH   3  16
ATOM     16  C10 UNL     1       1.312   0.068   1.699  1.00  0.00     0.117 C   
BRANCH  16  17
ATOM     17  N4  UNL     1      -0.122   0.250   2.113  1.00  0.00     0.249 N   
ATOM     18  H14 UNL     1      -0.592  -0.651   1.941  1.00  0.00     0.199 HD  
ATOM     19  H15 UNL     1      -0.213   0.448   3.110  1.00  0.00     0.199 HD  
BRANCH  17  20
ATOM     20  C11 UNL     1      -0.870   1.283   1.339  1.00  0.00     0.164 C   
BRANCH  20  21
ATOM     21  C12 UNL     1      -2.345   1.188   1.619  1.00  0.00    -0.002 A   
ATOM     22  C13 UNL     1      -2.902   1.735   2.799  1.00  0.00     0.012 A   
ATOM     23  C17 UNL     1      -3.175   0.501   0.718  1.00  0.00     0.045 A   
ATOM     24  C14 UNL     1      -4.267   1.594   3.080  1.00  0.00     0.037 A   
ATOM     25  C16 UNL     1      -4.518   0.402   1.013  1.00  0.00     0.109 A   
ATOM     26  C15 UNL     1      -5.048   0.917   2.171  1.00  0.00     0.108 A   
ATOM     27  O1  UNL     1      -5.455  -0.202   0.238  1.00  0.00    -0.316 OA  
ATOM     28  O2  UNL     1      -6.379   0.678   2.285  1.00  0.00    -0.316 OA  
ATOM     29  C18 UNL     1      -6.646   0.022   1.026  1.00  0.00     0.337 C   
ENDBRANCH  20  21
ENDBRANCH  17  20
ENDBRANCH  16  17
BRANCH  16  30
ATOM     30  C19 UNL     1       2.112  -0.697   2.786  1.00  0.00     0.043 C   
ATOM     31  C20 UNL     1       2.438   0.216   3.983  1.00  0.00     0.010 C   
ATOM     32  C24 UNL     1       1.440  -1.992   3.281  1.00  0.00     0.010 C   
ATOM     33  C21 UNL     1       3.307  -0.501   5.014  1.00  0.00     0.001 C   
ATOM     34  C23 UNL     1       2.293  -2.709   4.329  1.00  0.00     0.001 C   
ATOM     35  C22 UNL     1       2.656  -1.793   5.492  1.00  0.00     0.000 C   
ENDBRANCH  16  30
ENDBRANCH   3  16
TORSDOF 8
