REMARK SMILES Cc1ccc([C@@H](CO)n2cc([C@@H]([NH2+]Cc3ccc4c(c3)OCO4)C3CCCC3)nn2)cc1O
REMARK SMILES IDX 9 1 10 2 11 3 29 4 30 5 6 7 5 8 2 9 3 10 32 11 4 12 31 13
REMARK SMILES IDX 1 14 33 15 7 17 8 18 12 20 13 21 14 24 15 25 16 26 20 27
REMARK SMILES IDX 17 28 19 29 18 30 21 31 23 32 22 33 24 34 25 35 28 36 26 37
REMARK SMILES IDX 27 38
REMARK H PARENT 10 6 33 16 8 19 13 22 13 23
ROOT
ATOM     1   N1  UNL     1      -2.174  -2.267   1.008  1.00  0.00    -0.202 N   
ATOM     2   C8  UNL     1      -2.124  -1.514  -0.135  1.00  0.00     0.046 A   
ATOM     3   C9  UNL     1      -1.316  -2.234  -0.982  1.00  0.00     0.127 A   
ATOM     4   N3  UNL     1      -0.949  -3.405  -0.372  1.00  0.00    -0.132 NA  
ATOM     5   N4  UNL     1      -1.467  -3.409   0.846  1.00  0.00    -0.075 NA  
ATOM     6   H10 UNL     1      -2.600  -0.546  -0.215  1.00  0.00     0.083 HD  
ENDROOT
BRANCH   1   7
ATOM     7   C6  UNL     1      -2.720  -1.923   2.320  1.00  0.00     0.155 C   
BRANCH   7   8
ATOM     8   C5  UNL     1      -1.793  -0.948   3.038  1.00  0.00    -0.021 A   
ATOM     9   C2  UNL     1      -0.006   0.808   4.380  1.00  0.00    -0.021 A   
ATOM     10  C3  UNL     1      -0.128  -0.532   4.772  1.00  0.00     0.006 A   
ATOM     11  C25 UNL     1      -0.777   1.249   3.301  1.00  0.00     0.074 A   
ATOM     12  C4  UNL     1      -1.003  -1.399   4.108  1.00  0.00     0.006 A   
ATOM     13  C24 UNL     1      -1.666   0.393   2.648  1.00  0.00     0.039 A   
ATOM     14  C1  UNL     1       0.947   1.708   5.111  1.00  0.00     0.047 C   
BRANCH  11  15
ATOM     15  O4  UNL     1      -0.707   2.523   2.810  1.00  0.00    -0.361 OA  
ATOM     16  H31 UNL     1      -0.205   3.076   3.433  1.00  0.00     0.218 HD  
ENDBRANCH  11  15
ENDBRANCH   7   8
BRANCH   7  17
ATOM     17  C7  UNL     1      -4.208  -1.512   2.284  1.00  0.00     0.185 C   
BRANCH  17  18
ATOM     18  O1  UNL     1      -4.468  -0.354   1.490  1.00  0.00    -0.394 OA  
ATOM     19  H9  UNL     1      -5.392  -0.096   1.660  1.00  0.00     0.210 HD  
ENDBRANCH  17  18
ENDBRANCH   7  17
ENDBRANCH   1   7
BRANCH   3  20
ATOM     20  C10 UNL     1      -0.742  -1.869  -2.307  1.00  0.00     0.117 C   
BRANCH  20  21
ATOM     21  N2  UNL     1       0.737  -2.183  -2.334  1.00  0.00     0.249 N   
ATOM     22  H12 UNL     1       1.101  -2.107  -3.285  1.00  0.00     0.199 HD  
ATOM     23  H13 UNL     1       0.831  -3.165  -2.044  1.00  0.00     0.199 HD  
BRANCH  21  24
ATOM     24  C11 UNL     1       1.596  -1.377  -1.410  1.00  0.00     0.164 C   
BRANCH  24  25
ATOM     25  C12 UNL     1       1.593   0.091  -1.733  1.00  0.00    -0.002 A   
ATOM     26  C13 UNL     1       0.971   1.013  -0.856  1.00  0.00     0.012 A   
ATOM     27  C17 UNL     1       2.176   0.556  -2.925  1.00  0.00     0.045 A   
ATOM     28  C14 UNL     1       0.916   2.377  -1.165  1.00  0.00     0.037 A   
ATOM     29  C16 UNL     1       2.101   1.906  -3.201  1.00  0.00     0.109 A   
ATOM     30  C15 UNL     1       1.488   2.791  -2.348  1.00  0.00     0.108 A   
ATOM     31  O2  UNL     1       2.599   2.512  -4.311  1.00  0.00    -0.316 OA  
ATOM     32  O3  UNL     1       1.526   4.067  -2.812  1.00  0.00    -0.316 OA  
ATOM     33  C18 UNL     1       2.241   3.889  -4.054  1.00  0.00     0.337 C   
ENDBRANCH  24  25
ENDBRANCH  21  24
ENDBRANCH  20  21
BRANCH  20  34
ATOM     34  C19 UNL     1      -1.468  -2.563  -3.477  1.00  0.00     0.043 C   
ATOM     35  C20 UNL     1      -1.099  -1.994  -4.863  1.00  0.00     0.010 C   
ATOM     36  C23 UNL     1      -1.274  -4.080  -3.607  1.00  0.00     0.010 C   
ATOM     37  C21 UNL     1      -0.904  -3.199  -5.782  1.00  0.00     0.001 C   
ATOM     38  C22 UNL     1      -1.593  -4.350  -5.069  1.00  0.00     0.001 C   
ENDBRANCH  20  34
ENDBRANCH   3  20
TORSDOF 10
