REMARK SMILES Cc1ccc([C@H](CO)n2cc([C@@H]([NH2+]Cc3ccc4c(c3)OCO4)C3CCCC3)nn2)cc1O
REMARK SMILES IDX 9 1 10 2 11 3 29 4 30 5 6 7 5 8 2 9 3 10 32 11 4 12 31 13
REMARK SMILES IDX 1 14 33 15 7 17 8 18 12 20 13 21 14 24 15 25 16 26 20 27
REMARK SMILES IDX 17 28 19 29 18 30 21 31 23 32 22 33 24 34 25 35 28 36 26 37
REMARK SMILES IDX 27 38
REMARK H PARENT 10 6 33 16 8 19 13 22 13 23
ROOT
ATOM     1   N1  UNL     1      -1.667  -1.290   0.555  1.00  0.00    -0.202 N   
ATOM     2   C8  UNL     1      -0.625  -2.088   0.153  1.00  0.00     0.046 A   
ATOM     3   C9  UNL     1       0.233  -2.081   1.229  1.00  0.00     0.127 A   
ATOM     4   N3  UNL     1      -0.297  -1.304   2.229  1.00  0.00    -0.132 NA  
ATOM     5   N4  UNL     1      -1.458  -0.831   1.810  1.00  0.00    -0.075 NA  
ATOM     6   H10 UNL     1      -0.590  -2.542  -0.827  1.00  0.00     0.083 HD  
ENDROOT
BRANCH   1   7
ATOM     7   C6  UNL     1      -2.854  -0.918  -0.216  1.00  0.00     0.155 C   
BRANCH   7   8
ATOM     8   C5  UNL     1      -2.772   0.541  -0.640  1.00  0.00    -0.021 A   
ATOM     9   C2  UNL     1      -2.602   3.247  -1.481  1.00  0.00    -0.021 A   
ATOM     10  C3  UNL     1      -2.908   2.925  -0.151  1.00  0.00     0.006 A   
ATOM     11  C25 UNL     1      -2.380   2.197  -2.378  1.00  0.00     0.074 A   
ATOM     12  C4  UNL     1      -2.992   1.592   0.265  1.00  0.00     0.006 A   
ATOM     13  C24 UNL     1      -2.460   0.865  -1.969  1.00  0.00     0.039 A   
ATOM     14  C1  UNL     1      -2.495   4.691  -1.884  1.00  0.00     0.047 C   
BRANCH  11  15
ATOM     15  O4  UNL     1      -2.062   2.396  -3.693  1.00  0.00    -0.361 OA  
ATOM     16  H31 UNL     1      -2.039   3.349  -3.873  1.00  0.00     0.218 HD  
ENDBRANCH  11  15
ENDBRANCH   7   8
BRANCH   7  17
ATOM     17  C7  UNL     1      -4.155  -1.273   0.524  1.00  0.00     0.185 C   
BRANCH  17  18
ATOM     18  O1  UNL     1      -4.346  -2.690   0.539  1.00  0.00    -0.394 OA  
ATOM     19  H9  UNL     1      -5.164  -2.858   1.042  1.00  0.00     0.210 HD  
ENDBRANCH  17  18
ENDBRANCH   7  17
ENDBRANCH   1   7
BRANCH   3  20
ATOM     20  C10 UNL     1       1.587  -2.680   1.417  1.00  0.00     0.117 C   
BRANCH  20  21
ATOM     21  N2  UNL     1       2.445  -1.728   2.226  1.00  0.00     0.249 N   
ATOM     22  H12 UNL     1       1.781  -1.130   2.744  1.00  0.00     0.199 HD  
ATOM     23  H13 UNL     1       2.974  -2.229   2.945  1.00  0.00     0.199 HD  
BRANCH  21  24
ATOM     24  C11 UNL     1       3.370  -0.850   1.460  1.00  0.00     0.164 C   
BRANCH  24  25
ATOM     25  C12 UNL     1       2.701   0.032   0.443  1.00  0.00    -0.002 A   
ATOM     26  C13 UNL     1       1.870   1.105   0.847  1.00  0.00     0.012 A   
ATOM     27  C17 UNL     1       2.886  -0.214  -0.929  1.00  0.00     0.045 A   
ATOM     28  C14 UNL     1       1.240   1.925  -0.099  1.00  0.00     0.037 A   
ATOM     29  C16 UNL     1       2.244   0.608  -1.833  1.00  0.00     0.109 A   
ATOM     30  C15 UNL     1       1.453   1.655  -1.432  1.00  0.00     0.108 A   
ATOM     31  O2  UNL     1       2.311   0.494  -3.186  1.00  0.00    -0.316 OA  
ATOM     32  O3  UNL     1       0.945   2.353  -2.482  1.00  0.00    -0.316 OA  
ATOM     33  C18 UNL     1       1.436   1.571  -3.593  1.00  0.00     0.337 C   
ENDBRANCH  24  25
ENDBRANCH  21  24
ENDBRANCH  20  21
BRANCH  20  34
ATOM     34  C19 UNL     1       1.521  -4.060   2.103  1.00  0.00     0.043 C   
ATOM     35  C20 UNL     1       1.079  -4.065   3.582  1.00  0.00     0.010 C   
ATOM     36  C23 UNL     1       2.858  -4.815   2.079  1.00  0.00     0.010 C   
ATOM     37  C21 UNL     1       2.086  -4.940   4.322  1.00  0.00     0.001 C   
ATOM     38  C22 UNL     1       2.743  -5.784   3.243  1.00  0.00     0.001 C   
ENDBRANCH  20  34
ENDBRANCH   3  20
TORSDOF 10
