REMARK SMILES CC(C)c1ncc(Cn2cc([C@@H]([NH2+]Cc3ccc4c(c3)OCO4)C3CCCCC3)nn2)cn1
REMARK SMILES IDX 9 1 10 2 11 3 30 4 31 5 8 7 7 8 4 9 5 10 33 11 6 12 32 13
REMARK SMILES IDX 2 14 1 15 3 16 12 17 13 18 14 21 15 22 16 23 20 24 17 25
REMARK SMILES IDX 19 26 18 27 21 28 23 29 22 30 24 31 25 32 29 33 26 34 28 35
REMARK SMILES IDX 27 36
REMARK H PARENT 10 6 13 19 13 20
ROOT
ATOM     1   N2  UNL     1      -0.030   2.252  -1.121  1.00  0.00    -0.208 N   
ATOM     2   C8  UNL     1       0.272   1.025  -1.643  1.00  0.00     0.046 A   
ATOM     3   C9  UNL     1       1.263   0.545  -0.816  1.00  0.00     0.127 A   
ATOM     4   N4  UNL     1       1.582   1.516   0.101  1.00  0.00    -0.132 NA  
ATOM     5   N5  UNL     1       0.797   2.558  -0.105  1.00  0.00    -0.076 NA  
ATOM     6   H11 UNL     1      -0.260   0.608  -2.485  1.00  0.00     0.083 HD  
ENDROOT
BRANCH   1   7
ATOM     7   C7  UNL     1      -1.114   3.147  -1.490  1.00  0.00     0.172 C   
BRANCH   7   8
ATOM     8   C6  UNL     1      -2.337   2.834  -0.692  1.00  0.00     0.008 A   
ATOM     9   C4  UNL     1      -4.511   2.183   0.811  1.00  0.00     0.130 A   
ATOM     10  N1  UNL     1      -4.403   1.635  -0.417  1.00  0.00    -0.241 NA  
ATOM     11  N6  UNL     1      -3.598   3.016   1.346  1.00  0.00    -0.241 NA  
ATOM     12  C5  UNL     1      -3.324   1.981  -1.142  1.00  0.00     0.120 A   
ATOM     13  C25 UNL     1      -2.531   3.321   0.584  1.00  0.00     0.120 A   
BRANCH   9  14
ATOM     14  C2  UNL     1      -5.713   1.828   1.660  1.00  0.00     0.051 C   
ATOM     15  C1  UNL     1      -5.658   0.361   2.085  1.00  0.00     0.016 C   
ATOM     16  C3  UNL     1      -7.017   2.143   0.928  1.00  0.00     0.016 C   
ENDBRANCH   9  14
ENDBRANCH   7   8
ENDBRANCH   1   7
BRANCH   3  17
ATOM     17  C10 UNL     1       2.009  -0.754  -0.781  1.00  0.00     0.117 C   
BRANCH  17  18
ATOM     18  N3  UNL     1       3.200  -0.604   0.153  1.00  0.00     0.249 N   
ATOM     19  H13 UNL     1       3.208   0.386   0.450  1.00  0.00     0.199 HD  
ATOM     20  H14 UNL     1       3.046  -1.128   1.020  1.00  0.00     0.199 HD  
BRANCH  18  21
ATOM     21  C11 UNL     1       4.534  -0.937  -0.410  1.00  0.00     0.164 C   
BRANCH  21  22
ATOM     22  C12 UNL     1       4.720  -2.412  -0.632  1.00  0.00    -0.002 A   
ATOM     23  C13 UNL     1       4.725  -2.947  -1.943  1.00  0.00     0.012 A   
ATOM     24  C17 UNL     1       4.860  -3.278   0.466  1.00  0.00     0.045 A   
ATOM     25  C14 UNL     1       4.857  -4.323  -2.160  1.00  0.00     0.037 A   
ATOM     26  C16 UNL     1       4.983  -4.630   0.218  1.00  0.00     0.109 A   
ATOM     27  C15 UNL     1       4.979  -5.138  -1.057  1.00  0.00     0.108 A   
ATOM     28  O1  UNL     1       5.112  -5.596   1.163  1.00  0.00    -0.316 OA  
ATOM     29  O2  UNL     1       5.106  -6.490  -1.076  1.00  0.00    -0.316 OA  
ATOM     30  C18 UNL     1       5.221  -6.777   0.334  1.00  0.00     0.337 C   
ENDBRANCH  21  22
ENDBRANCH  18  21
ENDBRANCH  17  18
BRANCH  17  31
ATOM     31  C19 UNL     1       1.170  -1.978  -0.328  1.00  0.00     0.043 C   
ATOM     32  C20 UNL     1       0.395  -1.761   0.988  1.00  0.00     0.010 C   
ATOM     33  C24 UNL     1       0.206  -2.452  -1.434  1.00  0.00     0.010 C   
ATOM     34  C21 UNL     1      -0.367  -3.019   1.404  1.00  0.00     0.001 C   
ATOM     35  C23 UNL     1      -0.548  -3.713  -1.016  1.00  0.00     0.001 C   
ATOM     36  C22 UNL     1      -1.298  -3.510   0.298  1.00  0.00     0.000 C   
ENDBRANCH  17  31
ENDBRANCH   3  17
TORSDOF 8
