REMARK SMILES CC(C)(C)[C@H]([NH2+]Cc1ccc2c(c1)OCO2)c1cn(CCc2ccc(F)cn2)nn1
REMARK SMILES IDX 17 1 18 2 19 3 29 4 30 5 5 7 2 8 1 9 3 10 4 11 6 12 7 15
REMARK SMILES IDX 8 16 9 17 13 18 10 19 12 20 11 21 14 22 16 23 15 24 20 25
REMARK SMILES IDX 21 26 22 27 23 28 28 29 24 30 27 31 25 32 26 33
REMARK H PARENT 18 6 6 13 6 14
ROOT
ATOM     1   C14 UNL     1       0.299  -1.029  -2.072  1.00  0.00     0.127 A   
ATOM     2   C15 UNL     1       1.628  -0.722  -1.896  1.00  0.00     0.045 A   
ATOM     3   N2  UNL     1       1.881   0.217  -2.853  1.00  0.00    -0.212 N   
ATOM     4   N4  UNL     1       0.781   0.459  -3.593  1.00  0.00    -0.076 NA  
ATOM     5   N5  UNL     1      -0.197  -0.297  -3.122  1.00  0.00    -0.132 NA  
ATOM     6   H20 UNL     1       2.377  -1.030  -1.178  1.00  0.00     0.083 HD  
ENDROOT
BRANCH   1   7
ATOM     7   C5  UNL     1      -0.623  -1.882  -1.261  1.00  0.00     0.120 C   
BRANCH   7   8
ATOM     8   C2  UNL     1      -0.867  -3.315  -1.849  1.00  0.00     0.010 C   
ATOM     9   C1  UNL     1      -1.674  -4.169  -0.842  1.00  0.00     0.017 C   
ATOM     10  C3  UNL     1      -1.630  -3.296  -3.189  1.00  0.00     0.017 C   
ATOM     11  C4  UNL     1       0.483  -4.038  -2.068  1.00  0.00     0.017 C   
ENDBRANCH   7   8
BRANCH   7  12
ATOM     12  N1  UNL     1      -1.941  -1.147  -1.098  1.00  0.00     0.250 N   
ATOM     13  H11 UNL     1      -2.218  -0.851  -2.044  1.00  0.00     0.199 HD  
ATOM     14  H12 UNL     1      -2.670  -1.769  -0.746  1.00  0.00     0.199 HD  
BRANCH  12  15
ATOM     15  C6  UNL     1      -1.904   0.084  -0.252  1.00  0.00     0.164 C   
BRANCH  15  16
ATOM     16  C7  UNL     1      -1.630  -0.210   1.198  1.00  0.00    -0.002 A   
ATOM     17  C8  UNL     1      -2.605  -0.852   1.997  1.00  0.00     0.012 A   
ATOM     18  C12 UNL     1      -0.383   0.121   1.758  1.00  0.00     0.045 A   
ATOM     19  C9  UNL     1      -2.340  -1.174   3.332  1.00  0.00     0.037 A   
ATOM     20  C11 UNL     1      -0.154  -0.214   3.076  1.00  0.00     0.109 A   
ATOM     21  C10 UNL     1      -1.105  -0.843   3.840  1.00  0.00     0.108 A   
ATOM     22  O1  UNL     1       0.997   0.012   3.763  1.00  0.00    -0.316 OA  
ATOM     23  O2  UNL     1      -0.676  -1.092   5.105  1.00  0.00    -0.316 OA  
ATOM     24  C13 UNL     1       0.648  -0.514   5.066  1.00  0.00     0.337 C   
ENDBRANCH  15  16
ENDBRANCH  12  15
ENDBRANCH   7  12
ENDBRANCH   1   7
BRANCH   3  25
ATOM     25  C16 UNL     1       3.118   0.920  -3.120  1.00  0.00     0.140 C   
BRANCH  25  26
ATOM     26  C17 UNL     1       3.081   2.388  -2.698  1.00  0.00     0.077 C   
BRANCH  26  27
ATOM     27  C18 UNL     1       3.134   2.629  -1.207  1.00  0.00     0.042 A   
ATOM     28  C19 UNL     1       3.142   3.946  -0.735  1.00  0.00     0.027 A   
ATOM     29  N3  UNL     1       3.207   1.560  -0.374  1.00  0.00    -0.258 NA  
ATOM     30  C20 UNL     1       3.242   4.177   0.635  1.00  0.00     0.043 A   
ATOM     31  C22 UNL     1       3.325   1.816   0.954  1.00  0.00     0.150 A   
ATOM     32  C21 UNL     1       3.341   3.092   1.488  1.00  0.00     0.141 A   
ATOM     33  F1  UNL     1       3.461   3.271   2.810  1.00  0.00    -0.205 F   
ENDBRANCH  26  27
ENDBRANCH  25  26
ENDBRANCH   3  25
TORSDOF 8
