REMARK SMILES COc1ccc([C@H](CO)n2cc([C@H](CC(C)C)[NH2+]Cc3ccc4c(c3)OCO4)nn2)cc1
REMARK SMILES IDX 10 1 11 2 12 3 29 4 30 5 7 7 6 8 3 9 4 10 32 11 5 12 31 13
REMARK SMILES IDX 2 14 1 15 8 16 9 17 13 19 14 20 15 21 16 22 17 23 18 24
REMARK SMILES IDX 19 27 20 28 21 29 25 30 22 31 24 32 23 33 26 34 28 35 27 36
REMARK H PARENT 11 6 9 18 18 25 18 26
ROOT
ATOM     1   N1  UNL     1       2.455   0.518  -0.814  1.00  0.00    -0.202 N   
ATOM     2   C8  UNL     1       1.391  -0.249  -1.212  1.00  0.00     0.046 A   
ATOM     3   C9  UNL     1       0.524  -0.205  -0.146  1.00  0.00     0.127 A   
ATOM     4   N3  UNL     1       1.093   0.534   0.864  1.00  0.00    -0.132 NA  
ATOM     5   N4  UNL     1       2.282   0.947   0.455  1.00  0.00    -0.075 NA  
ATOM     6   H10 UNL     1       1.344  -0.697  -2.198  1.00  0.00     0.083 HD  
ENDROOT
BRANCH   1   7
ATOM     7   C6  UNL     1       3.613   0.960  -1.594  1.00  0.00     0.155 C   
BRANCH   7   8
ATOM     8   C5  UNL     1       3.144   1.680  -2.856  1.00  0.00    -0.023 A   
ATOM     9   C2  UNL     1       2.154   3.072  -5.116  1.00  0.00     0.075 A   
ATOM     10  C3  UNL     1       2.710   1.798  -5.257  1.00  0.00     0.034 A   
ATOM     11  C24 UNL     1       2.093   3.651  -3.846  1.00  0.00     0.034 A   
ATOM     12  C4  UNL     1       3.200   1.109  -4.138  1.00  0.00     0.008 A   
ATOM     13  C23 UNL     1       2.583   2.968  -2.729  1.00  0.00     0.008 A   
BRANCH   9  14
ATOM     14  O1  UNL     1       1.629   3.835  -6.122  1.00  0.00    -0.349 OA  
ATOM     15  C1  UNL     1       1.923   3.428  -7.455  1.00  0.00     0.203 C   
ENDBRANCH   9  14
ENDBRANCH   7   8
BRANCH   7  16
ATOM     16  C7  UNL     1       4.651  -0.172  -1.751  1.00  0.00     0.185 C   
BRANCH  16  17
ATOM     17  O2  UNL     1       4.122  -1.343  -2.371  1.00  0.00    -0.394 OA  
ATOM     18  H9  UNL     1       4.865  -1.970  -2.472  1.00  0.00     0.210 HD  
ENDBRANCH  16  17
ENDBRANCH   7  16
ENDBRANCH   1   7
BRANCH   3  19
ATOM     19  C10 UNL     1      -0.843  -0.793   0.035  1.00  0.00     0.114 C   
BRANCH  19  20
ATOM     20  C11 UNL     1      -1.870  -0.080  -0.876  1.00  0.00     0.064 C   
BRANCH  20  21
ATOM     21  C12 UNL     1      -3.290  -0.687  -0.909  1.00  0.00    -0.012 C   
ATOM     22  C13 UNL     1      -3.292  -2.139  -1.392  1.00  0.00     0.007 C   
ATOM     23  C14 UNL     1      -4.191   0.161  -1.816  1.00  0.00     0.007 C   
ENDBRANCH  20  21
ENDBRANCH  19  20
BRANCH  19  24
ATOM     24  N2  UNL     1      -1.286  -0.652   1.468  1.00  0.00     0.249 N   
ATOM     25  H21 UNL     1      -1.007   0.294   1.766  1.00  0.00     0.199 HD  
ATOM     26  H22 UNL     1      -2.301  -0.699   1.572  1.00  0.00     0.199 HD  
BRANCH  24  27
ATOM     27  C15 UNL     1      -0.666  -1.609   2.429  1.00  0.00     0.164 C   
BRANCH  27  28
ATOM     28  C16 UNL     1      -1.022  -1.224   3.838  1.00  0.00    -0.002 A   
ATOM     29  C17 UNL     1      -0.106  -0.480   4.620  1.00  0.00     0.012 A   
ATOM     30  C21 UNL     1      -2.291  -1.538   4.364  1.00  0.00     0.045 A   
ATOM     31  C18 UNL     1      -0.440  -0.062   5.914  1.00  0.00     0.037 A   
ATOM     32  C20 UNL     1      -2.591  -1.101   5.638  1.00  0.00     0.109 A   
ATOM     33  C19 UNL     1      -1.692  -0.385   6.392  1.00  0.00     0.108 A   
ATOM     34  O3  UNL     1      -3.774  -1.298   6.283  1.00  0.00    -0.316 OA  
ATOM     35  O4  UNL     1      -2.192  -0.050   7.610  1.00  0.00    -0.316 OA  
ATOM     36  C22 UNL     1      -3.514  -0.629   7.539  1.00  0.00     0.337 C   
ENDBRANCH  27  28
ENDBRANCH  24  27
ENDBRANCH  19  24
ENDBRANCH   3  19
TORSDOF 11
