REMARK SMILES COc1ccc([C@@H](CO)n2cc([C@H](CC(C)C)[NH2+]Cc3ccc4c(c3)OCO4)nn2)cc1
REMARK SMILES IDX 10 1 11 2 12 3 29 4 30 5 7 7 6 8 3 9 4 10 32 11 5 12 31 13
REMARK SMILES IDX 2 14 1 15 8 16 9 17 13 19 14 20 15 21 16 22 17 23 18 24
REMARK SMILES IDX 19 27 20 28 21 29 25 30 22 31 24 32 23 33 26 34 28 35 27 36
REMARK H PARENT 11 6 9 18 18 25 18 26
ROOT
ATOM     1   N1  UNL     1      -2.437  -0.236  -1.382  1.00  0.00    -0.202 N   
ATOM     2   C8  UNL     1      -1.267  -0.596  -0.768  1.00  0.00     0.046 A   
ATOM     3   C9  UNL     1      -1.384  -0.088   0.506  1.00  0.00     0.127 A   
ATOM     4   N3  UNL     1      -2.579   0.574   0.619  1.00  0.00    -0.132 NA  
ATOM     5   N4  UNL     1      -3.213   0.479  -0.539  1.00  0.00    -0.075 NA  
ATOM     6   H10 UNL     1      -0.497  -1.156  -1.281  1.00  0.00     0.083 HD  
ENDROOT
BRANCH   1   7
ATOM     7   C6  UNL     1      -2.851  -0.454  -2.768  1.00  0.00     0.155 C   
BRANCH   7   8
ATOM     8   C5  UNL     1      -1.832   0.164  -3.721  1.00  0.00    -0.023 A   
ATOM     9   C2  UNL     1       0.030   1.415  -5.445  1.00  0.00     0.075 A   
ATOM     10  C3  UNL     1      -0.905   2.174  -4.745  1.00  0.00     0.034 A   
ATOM     11  C24 UNL     1       0.044   0.033  -5.275  1.00  0.00     0.034 A   
ATOM     12  C4  UNL     1      -1.828   1.559  -3.895  1.00  0.00     0.008 A   
ATOM     13  C23 UNL     1      -0.877  -0.588  -4.420  1.00  0.00     0.008 A   
BRANCH   9  14
ATOM     14  O1  UNL     1       0.872   2.137  -6.244  1.00  0.00    -0.349 OA  
ATOM     15  C1  UNL     1       1.698   1.403  -7.140  1.00  0.00     0.203 C   
ENDBRANCH   9  14
ENDBRANCH   7   8
BRANCH   7  16
ATOM     16  C7  UNL     1      -3.259  -1.922  -3.012  1.00  0.00     0.185 C   
BRANCH  16  17
ATOM     17  O2  UNL     1      -2.220  -2.856  -2.710  1.00  0.00    -0.394 OA  
ATOM     18  H9  UNL     1      -2.577  -3.744  -2.894  1.00  0.00     0.210 HD  
ENDBRANCH  16  17
ENDBRANCH   7  16
ENDBRANCH   1   7
BRANCH   3  19
ATOM     19  C10 UNL     1      -0.418  -0.066   1.635  1.00  0.00     0.114 C   
BRANCH  19  20
ATOM     20  C11 UNL     1      -0.859  -0.913   2.845  1.00  0.00     0.064 C   
BRANCH  20  21
ATOM     21  C12 UNL     1      -0.880  -2.450   2.681  1.00  0.00    -0.012 C   
ATOM     22  C13 UNL     1      -2.114  -2.971   1.946  1.00  0.00     0.007 C   
ATOM     23  C14 UNL     1       0.397  -3.001   2.050  1.00  0.00     0.007 C   
ENDBRANCH  20  21
ENDBRANCH  19  20
BRANCH  19  24
ATOM     24  N2  UNL     1      -0.278   1.364   2.134  1.00  0.00     0.249 N   
ATOM     25  H21 UNL     1       0.234   1.377   3.020  1.00  0.00     0.199 HD  
ATOM     26  H22 UNL     1      -1.233   1.695   2.326  1.00  0.00     0.199 HD  
BRANCH  24  27
ATOM     27  C15 UNL     1       0.353   2.334   1.187  1.00  0.00     0.164 C   
BRANCH  27  28
ATOM     28  C16 UNL     1       1.806   2.041   0.929  1.00  0.00    -0.002 A   
ATOM     29  C17 UNL     1       2.222   1.522  -0.321  1.00  0.00     0.012 A   
ATOM     30  C21 UNL     1       2.759   2.260   1.938  1.00  0.00     0.045 A   
ATOM     31  C18 UNL     1       3.568   1.220  -0.562  1.00  0.00     0.037 A   
ATOM     32  C20 UNL     1       4.077   1.952   1.667  1.00  0.00     0.109 A   
ATOM     33  C19 UNL     1       4.471   1.447   0.453  1.00  0.00     0.108 A   
ATOM     34  O3  UNL     1       5.115   2.104   2.529  1.00  0.00    -0.316 OA  
ATOM     35  O4  UNL     1       5.809   1.218   0.398  1.00  0.00    -0.316 OA  
ATOM     36  C22 UNL     1       6.221   1.671   1.705  1.00  0.00     0.337 C   
ENDBRANCH  27  28
ENDBRANCH  24  27
ENDBRANCH  19  24
ENDBRANCH   3  19
TORSDOF 11
