REMARK SMILES Cc1cccc(CCn2cc([C@@H]([NH2+]Cc3ccc4c(c3)OCO4)C3CCCC3)nn2)c1
REMARK SMILES IDX 9 1 10 2 11 3 29 4 30 5 8 7 7 8 6 9 2 10 3 11 31 12 4 13
REMARK SMILES IDX 5 14 1 15 12 16 13 17 14 20 15 21 16 22 20 23 17 24 19 25
REMARK SMILES IDX 18 26 21 27 23 28 22 29 24 30 25 31 28 32 26 33 27 34
REMARK H PARENT 10 6 13 18 13 19
ROOT
ATOM     1   N1  UNL     1       0.034   1.656   3.041  1.00  0.00    -0.212 N   
ATOM     2   C9  UNL     1      -0.951   0.997   2.360  1.00  0.00     0.045 A   
ATOM     3   C10 UNL     1      -0.272   0.038   1.644  1.00  0.00     0.127 A   
ATOM     4   N3  UNL     1       1.069   0.131   1.923  1.00  0.00    -0.132 NA  
ATOM     5   N4  UNL     1       1.243   1.127   2.776  1.00  0.00    -0.076 NA  
ATOM     6   H11 UNL     1      -1.991   1.287   2.421  1.00  0.00     0.083 HD  
ENDROOT
BRANCH   1   7
ATOM     7   C8  UNL     1      -0.097   2.816   3.898  1.00  0.00     0.139 C   
BRANCH   7   8
ATOM     8   C7  UNL     1       0.347   4.111   3.216  1.00  0.00     0.057 C   
BRANCH   8   9
ATOM     9   C6  UNL     1      -0.450   4.428   1.970  1.00  0.00    -0.046 A   
ATOM     10  C2  UNL     1      -2.538   5.107   0.909  1.00  0.00    -0.051 A   
ATOM     11  C3  UNL     1      -1.928   4.986  -0.345  1.00  0.00     0.003 A   
ATOM     12  C25 UNL     1      -1.788   4.839   2.062  1.00  0.00     0.007 A   
ATOM     13  C4  UNL     1      -0.597   4.584  -0.447  1.00  0.00     0.001 A   
ATOM     14  C5  UNL     1       0.139   4.302   0.704  1.00  0.00     0.004 A   
ATOM     15  C1  UNL     1      -3.952   5.596   1.025  1.00  0.00     0.044 C   
ENDBRANCH   8   9
ENDBRANCH   7   8
ENDBRANCH   1   7
BRANCH   3  16
ATOM     16  C11 UNL     1      -0.747  -0.960   0.640  1.00  0.00     0.117 C   
BRANCH  16  17
ATOM     17  N2  UNL     1       0.332  -1.210  -0.378  1.00  0.00     0.249 N   
ATOM     18  H13 UNL     1       0.208  -2.101  -0.867  1.00  0.00     0.199 HD  
ATOM     19  H14 UNL     1       1.216  -1.288   0.146  1.00  0.00     0.199 HD  
BRANCH  17  20
ATOM     20  C12 UNL     1       0.517  -0.121  -1.377  1.00  0.00     0.164 C   
BRANCH  20  21
ATOM     21  C13 UNL     1       1.674  -0.433  -2.283  1.00  0.00    -0.002 A   
ATOM     22  C14 UNL     1       2.988  -0.060  -1.911  1.00  0.00     0.012 A   
ATOM     23  C18 UNL     1       1.468  -1.149  -3.474  1.00  0.00     0.045 A   
ATOM     24  C15 UNL     1       4.082  -0.381  -2.721  1.00  0.00     0.037 A   
ATOM     25  C17 UNL     1       2.569  -1.450  -4.250  1.00  0.00     0.109 A   
ATOM     26  C16 UNL     1       3.839  -1.076  -3.885  1.00  0.00     0.108 A   
ATOM     27  O1  UNL     1       2.546  -2.134  -5.423  1.00  0.00    -0.316 OA  
ATOM     28  O2  UNL     1       4.775  -1.475  -4.785  1.00  0.00    -0.316 OA  
ATOM     29  C19 UNL     1       3.949  -2.131  -5.771  1.00  0.00     0.337 C   
ENDBRANCH  20  21
ENDBRANCH  17  20
ENDBRANCH  16  17
BRANCH  16  30
ATOM     30  C20 UNL     1      -1.182  -2.280   1.305  1.00  0.00     0.043 C   
ATOM     31  C21 UNL     1      -1.927  -3.246   0.366  1.00  0.00     0.010 C   
ATOM     32  C24 UNL     1      -0.066  -3.134   1.916  1.00  0.00     0.010 C   
ATOM     33  C22 UNL     1      -1.536  -4.658   0.808  1.00  0.00     0.001 C   
ATOM     34  C23 UNL     1      -0.740  -4.485   2.094  1.00  0.00     0.001 C   
ENDBRANCH  16  30
ENDBRANCH   3  16
TORSDOF 8
