REMARK SMILES CCc1c(C)[nH]c(C(=O)n2cc([C@@H]([NH2+]Cc3ccc4c(c3)OCO4)C(C)(C)C)nn2)c1C
REMARK SMILES IDX 10 1 11 2 12 3 29 4 30 5 8 6 9 7 7 8 3 9 4 10 31 11 6 12
REMARK SMILES IDX 5 13 32 14 2 16 1 17 13 18 14 19 15 22 16 23 17 24 21 25
REMARK SMILES IDX 18 26 20 27 19 28 22 29 24 30 23 31 25 32 26 33 27 34 28 35
REMARK H PARENT 6 15 14 20 14 21
ROOT
ATOM     1   N2  UNL     1      -1.189  -2.405   0.100  1.00  0.00    -0.142 N   
ATOM     2   C8  UNL     1       0.085  -2.595  -0.409  1.00  0.00     0.139 A   
ATOM     3   C9  UNL     1       0.771  -1.442  -0.110  1.00  0.00     0.128 A   
ATOM     4   N4  UNL     1      -0.078  -0.572   0.517  1.00  0.00    -0.131 NA  
ATOM     5   N5  UNL     1      -1.260  -1.158   0.642  1.00  0.00    -0.068 NA  
ENDROOT
BRANCH   1   6
ATOM     6   C7  UNL     1      -2.290  -3.292   0.072  1.00  0.00     0.285 C   
ATOM     7   O1  UNL     1      -2.066  -4.352  -0.512  1.00  0.00    -0.268 OA  
BRANCH   6   8
ATOM     8   C6  UNL     1      -3.580  -2.986   0.684  1.00  0.00     0.099 A   
ATOM     9   C3  UNL     1      -5.726  -3.055   1.459  1.00  0.00    -0.026 A   
ATOM     10  C4  UNL     1      -5.148  -1.865   1.863  1.00  0.00     0.007 A   
ATOM     11  C23 UNL     1      -4.738  -3.761   0.694  1.00  0.00    -0.020 A   
ATOM     12  N1  UNL     1      -3.866  -1.839   1.391  1.00  0.00    -0.314 N   
ATOM     13  C5  UNL     1      -5.696  -0.742   2.671  1.00  0.00     0.062 C   
ATOM     14  C24 UNL     1      -4.911  -5.093   0.039  1.00  0.00     0.047 C   
ATOM     15  H9  UNL     1      -3.214  -1.082   1.550  1.00  0.00     0.153 HD  
BRANCH   9  16
ATOM     16  C2  UNL     1      -7.121  -3.510   1.772  1.00  0.00     0.034 C   
ATOM     17  C1  UNL     1      -8.116  -3.119   0.691  1.00  0.00     0.009 C   
ENDBRANCH   9  16
ENDBRANCH   6   8
ENDBRANCH   1   6
BRANCH   3  18
ATOM     18  C10 UNL     1       2.184  -1.044  -0.425  1.00  0.00     0.120 C   
BRANCH  18  19
ATOM     19  N3  UNL     1       2.239   0.381  -0.920  1.00  0.00     0.250 N   
ATOM     20  H12 UNL     1       1.905   1.004  -0.171  1.00  0.00     0.199 HD  
ATOM     21  H13 UNL     1       3.208   0.657  -1.119  1.00  0.00     0.199 HD  
BRANCH  19  22
ATOM     22  C11 UNL     1       1.439   0.681  -2.145  1.00  0.00     0.164 C   
BRANCH  22  23
ATOM     23  C12 UNL     1       1.846   2.009  -2.722  1.00  0.00    -0.002 A   
ATOM     24  C13 UNL     1       2.706   2.067  -3.849  1.00  0.00     0.012 A   
ATOM     25  C17 UNL     1       1.425   3.205  -2.113  1.00  0.00     0.045 A   
ATOM     26  C14 UNL     1       3.130   3.297  -4.368  1.00  0.00     0.037 A   
ATOM     27  C16 UNL     1       1.865   4.399  -2.650  1.00  0.00     0.109 A   
ATOM     28  C15 UNL     1       2.691   4.445  -3.748  1.00  0.00     0.108 A   
ATOM     29  O2  UNL     1       1.561   5.637  -2.178  1.00  0.00    -0.316 OA  
ATOM     30  O3  UNL     1       3.005   5.718  -4.109  1.00  0.00    -0.316 OA  
ATOM     31  C18 UNL     1       2.271   6.475  -3.121  1.00  0.00     0.337 C   
ENDBRANCH  22  23
ENDBRANCH  19  22
ENDBRANCH  18  19
BRANCH  18  32
ATOM     32  C19 UNL     1       3.185  -1.244   0.772  1.00  0.00     0.010 C   
ATOM     33  C20 UNL     1       3.174  -2.720   1.228  1.00  0.00     0.017 C   
ATOM     34  C21 UNL     1       4.631  -0.915   0.335  1.00  0.00     0.017 C   
ATOM     35  C22 UNL     1       2.846  -0.362   1.991  1.00  0.00     0.017 C   
ENDBRANCH  18  32
ENDBRANCH   3  18
TORSDOF 8
