REMARK SMILES c1coc(-c2n[nH]cc2Cn2cc([C@@H]([NH2+]Cc3ccc4c(c3)OCO4)C3CCCCC3)nn2)c1
REMARK SMILES IDX 11 1 12 2 13 3 32 4 33 5 10 7 9 8 5 9 6 10 7 11 8 12 4 14
REMARK SMILES IDX 1 15 2 16 34 17 3 18 14 19 15 20 16 23 17 24 18 25 22 26
REMARK SMILES IDX 19 27 21 28 20 29 23 30 25 31 24 32 26 33 27 34 31 35 28 36
REMARK SMILES IDX 30 37 29 38
REMARK H PARENT 12 6 7 13 15 21 15 22
ROOT
ATOM     1   N3  UNL     1       2.239   0.816  -0.255  1.00  0.00    -0.208 N   
ATOM     2   C8  UNL     1       1.110   0.073  -0.461  1.00  0.00     0.046 A   
ATOM     3   C9  UNL     1       1.565  -1.225  -0.493  1.00  0.00     0.127 A   
ATOM     4   N5  UNL     1       2.934  -1.225  -0.412  1.00  0.00    -0.132 NA  
ATOM     5   N6  UNL     1       3.337   0.030  -0.296  1.00  0.00    -0.076 NA  
ATOM     6   H7  UNL     1       0.124   0.513  -0.508  1.00  0.00     0.083 HD  
ENDROOT
BRANCH   1   7
ATOM     7   C7  UNL     1       2.350   2.249  -0.028  1.00  0.00     0.173 C   
BRANCH   7   8
ATOM     8   C6  UNL     1       2.368   2.541   1.430  1.00  0.00     0.017 A   
ATOM     9   C4  UNL     1       1.270   2.748   2.309  1.00  0.00     0.118 A   
ATOM     10  N1  UNL     1       1.671   2.951   3.570  1.00  0.00    -0.182 NA  
ATOM     11  N2  UNL     1       3.009   2.916   3.502  1.00  0.00    -0.245 N   
ATOM     12  C5  UNL     1       3.477   2.667   2.247  1.00  0.00     0.099 A   
ATOM     13  H3  UNL     1       3.540   3.066   4.355  1.00  0.00     0.175 HD  
BRANCH   9  14
ATOM     14  C3  UNL     1      -0.249   2.749   1.929  1.00  0.00     0.109 A   
ATOM     15  C1  UNL     1      -2.488   2.876   2.052  1.00  0.00     0.028 A   
ATOM     16  C2  UNL     1      -2.101   2.657   0.753  1.00  0.00     0.136 A   
ATOM     17  C25 UNL     1      -1.296   2.937   2.811  1.00  0.00     0.038 A   
ATOM     18  O1  UNL     1      -0.748   2.569   0.668  1.00  0.00    -0.316 OA  
ENDBRANCH   9  14
ENDBRANCH   7   8
ENDBRANCH   1   7
BRANCH   3  19
ATOM     19  C10 UNL     1       0.829  -2.519  -0.641  1.00  0.00     0.117 C   
BRANCH  19  20
ATOM     20  N4  UNL     1       1.646  -3.438  -1.531  1.00  0.00     0.249 N   
ATOM     21  H9  UNL     1       1.308  -4.400  -1.482  1.00  0.00     0.199 HD  
ATOM     22  H10 UNL     1       2.600  -3.431  -1.143  1.00  0.00     0.199 HD  
BRANCH  20  23
ATOM     23  C11 UNL     1       1.744  -3.049  -2.969  1.00  0.00     0.164 C   
BRANCH  23  24
ATOM     24  C12 UNL     1       0.426  -3.146  -3.687  1.00  0.00    -0.002 A   
ATOM     25  C13 UNL     1      -0.128  -4.410  -4.001  1.00  0.00     0.012 A   
ATOM     26  C17 UNL     1      -0.285  -1.978  -4.015  1.00  0.00     0.045 A   
ATOM     27  C14 UNL     1      -1.375  -4.513  -4.627  1.00  0.00     0.037 A   
ATOM     28  C16 UNL     1      -1.511  -2.115  -4.631  1.00  0.00     0.109 A   
ATOM     29  C15 UNL     1      -2.041  -3.346  -4.928  1.00  0.00     0.108 A   
ATOM     30  O2  UNL     1      -2.325  -1.094  -5.005  1.00  0.00    -0.316 OA  
ATOM     31  O3  UNL     1      -3.255  -3.255  -5.531  1.00  0.00    -0.316 OA  
ATOM     32  C18 UNL     1      -3.417  -1.823  -5.613  1.00  0.00     0.337 C   
ENDBRANCH  23  24
ENDBRANCH  20  23
ENDBRANCH  19  20
BRANCH  19  33
ATOM     33  C19 UNL     1       0.583  -3.228   0.728  1.00  0.00     0.043 C   
ATOM     34  C20 UNL     1      -0.224  -4.542   0.612  1.00  0.00     0.010 C   
ATOM     35  C24 UNL     1      -0.148  -2.327   1.752  1.00  0.00     0.010 C   
ATOM     36  C21 UNL     1      -1.681  -4.309   0.211  1.00  0.00     0.001 C   
ATOM     37  C23 UNL     1      -1.600  -2.053   1.364  1.00  0.00     0.001 C   
ATOM     38  C22 UNL     1      -2.381  -3.349   1.168  1.00  0.00     0.000 C   
ENDBRANCH  19  33
ENDBRANCH   3  19
TORSDOF 8
