REMARK SMILES Cc1cnc(Cn2cc([C@@H]([NH2+]Cc3ccc4c(c3)OCO4)C(C)(C)C)nn2)c(C)c1O
REMARK SMILES IDX 7 1 8 2 9 3 26 4 27 5 6 7 5 8 2 9 3 10 30 11 4 12 28 13 1 14
REMARK SMILES IDX 29 15 31 16 10 18 11 19 12 22 13 23 14 24 18 25 15 26 17 27
REMARK SMILES IDX 16 28 19 29 21 30 20 31 22 32 23 33 24 34 25 35
REMARK H PARENT 8 6 31 17 11 20 11 21
ROOT
ATOM     1   N2  UNL     1      -1.231   1.038  -1.503  1.00  0.00    -0.206 N   
ATOM     2   C6  UNL     1      -0.305   0.029  -1.494  1.00  0.00     0.046 A   
ATOM     3   C7  UNL     1       0.547   0.366  -0.466  1.00  0.00     0.127 A   
ATOM     4   N4  UNL     1       0.162   1.577   0.055  1.00  0.00    -0.132 NA  
ATOM     5   N5  UNL     1      -0.910   1.987  -0.601  1.00  0.00    -0.076 NA  
ATOM     6   H7  UNL     1      -0.368  -0.812  -2.172  1.00  0.00     0.083 HD  
ENDROOT
BRANCH   1   7
ATOM     7   C5  UNL     1      -2.391   1.187  -2.361  1.00  0.00     0.190 C   
BRANCH   7   8
ATOM     8   C4  UNL     1      -3.386   0.085  -2.108  1.00  0.00     0.065 A   
ATOM     9   C2  UNL     1      -5.087  -2.084  -1.785  1.00  0.00    -0.002 A   
ATOM     10  C3  UNL     1      -4.180  -1.979  -2.828  1.00  0.00     0.117 A   
ATOM     11  C23 UNL     1      -5.110  -1.027  -0.874  1.00  0.00     0.080 A   
ATOM     12  N1  UNL     1      -3.330  -0.943  -2.998  1.00  0.00    -0.259 NA  
ATOM     13  C21 UNL     1      -4.272   0.089  -1.023  1.00  0.00     0.003 A   
ATOM     14  C1  UNL     1      -5.971  -3.287  -1.677  1.00  0.00     0.049 C   
ATOM     15  C22 UNL     1      -4.295   1.200  -0.009  1.00  0.00     0.049 C   
BRANCH  11  16
ATOM     16  O3  UNL     1      -5.947  -1.042   0.209  1.00  0.00    -0.360 OA  
ATOM     17  H30 UNL     1      -6.577  -1.778   0.141  1.00  0.00     0.218 HD  
ENDBRANCH  11  16
ENDBRANCH   7   8
ENDBRANCH   1   7
BRANCH   3  18
ATOM     18  C8  UNL     1       1.771  -0.312   0.072  1.00  0.00     0.120 C   
BRANCH  18  19
ATOM     19  N3  UNL     1       2.732   0.751   0.555  1.00  0.00     0.250 N   
ATOM     20  H9  UNL     1       3.425   0.390   1.215  1.00  0.00     0.199 HD  
ATOM     21  H10 UNL     1       2.167   1.435   1.081  1.00  0.00     0.199 HD  
BRANCH  19  22
ATOM     22  C9  UNL     1       3.440   1.505  -0.516  1.00  0.00     0.164 C   
BRANCH  22  23
ATOM     23  C10 UNL     1       4.247   2.623   0.079  1.00  0.00    -0.002 A   
ATOM     24  C11 UNL     1       3.633   3.869   0.355  1.00  0.00     0.012 A   
ATOM     25  C15 UNL     1       5.595   2.424   0.420  1.00  0.00     0.045 A   
ATOM     26  C12 UNL     1       4.355   4.909   0.951  1.00  0.00     0.037 A   
ATOM     27  C14 UNL     1       6.277   3.470   1.008  1.00  0.00     0.109 A   
ATOM     28  C13 UNL     1       5.675   4.677   1.265  1.00  0.00     0.108 A   
ATOM     29  O1  UNL     1       7.577   3.444   1.399  1.00  0.00    -0.316 OA  
ATOM     30  O2  UNL     1       6.522   5.564   1.848  1.00  0.00    -0.316 OA  
ATOM     31  C16 UNL     1       7.734   4.784   1.920  1.00  0.00     0.337 C   
ENDBRANCH  22  23
ENDBRANCH  19  22
ENDBRANCH  18  19
BRANCH  18  32
ATOM     32  C17 UNL     1       1.482  -1.344   1.218  1.00  0.00     0.010 C   
ATOM     33  C18 UNL     1       2.779  -2.088   1.612  1.00  0.00     0.017 C   
ATOM     34  C19 UNL     1       0.901  -0.680   2.482  1.00  0.00     0.017 C   
ATOM     35  C20 UNL     1       0.481  -2.419   0.732  1.00  0.00     0.017 C   
ENDBRANCH  18  32
ENDBRANCH   3  18
TORSDOF 8
