REMARK SMILES Cc1[nH]nc(CC(C)C)c1Cn1cc([C@H](CC(C)C)[NH2+]Cc2ccc3c(c2)OCO3)nn1
REMARK SMILES IDX 12 1 13 2 14 3 31 4 32 5 11 7 10 8 2 9 3 10 4 11 5 12 1 13
REMARK SMILES IDX 6 15 7 16 8 17 9 18 15 19 16 20 17 21 18 22 19 23 20 24
REMARK SMILES IDX 21 27 22 28 23 29 27 30 24 31 26 32 25 33 28 34 30 35 29 36
REMARK H PARENT 13 6 3 14 20 25 20 26
ROOT
ATOM     1   N3  UNL     1       0.668  -0.405   2.686  1.00  0.00    -0.208 N   
ATOM     2   C10 UNL     1      -0.086  -0.298   1.547  1.00  0.00     0.046 A   
ATOM     3   C11 UNL     1      -0.002  -1.546   0.971  1.00  0.00     0.127 A   
ATOM     4   N5  UNL     1       0.823  -2.336   1.731  1.00  0.00    -0.132 NA  
ATOM     5   N6  UNL     1       1.244  -1.623   2.762  1.00  0.00    -0.076 NA  
ATOM     6   H16 UNL     1      -0.613   0.610   1.286  1.00  0.00     0.083 HD  
ENDROOT
BRANCH   1   7
ATOM     7   C9  UNL     1       0.924   0.605   3.701  1.00  0.00     0.173 C   
BRANCH   7   8
ATOM     8   C8  UNL     1      -0.321   0.921   4.456  1.00  0.00     0.013 A   
ATOM     9   C2  UNL     1      -0.936   0.157   5.435  1.00  0.00     0.028 A   
ATOM     10  N1  UNL     1      -2.039   0.863   5.827  1.00  0.00    -0.242 N   
ATOM     11  N2  UNL     1      -2.197   2.014   5.163  1.00  0.00    -0.189 NA  
ATOM     12  C3  UNL     1      -1.140   2.082   4.349  1.00  0.00     0.065 A   
ATOM     13  C1  UNL     1      -0.593  -1.157   6.030  1.00  0.00     0.064 C   
ATOM     14  H4  UNL     1      -2.725   0.619   6.535  1.00  0.00     0.175 HD  
BRANCH  12  15
ATOM     15  C4  UNL     1      -0.971   3.285   3.473  1.00  0.00     0.061 C   
BRANCH  15  16
ATOM     16  C5  UNL     1      -0.379   4.503   4.207  1.00  0.00    -0.011 C   
ATOM     17  C6  UNL     1      -0.489   5.749   3.323  1.00  0.00     0.008 C   
ATOM     18  C7  UNL     1       1.081   4.284   4.604  1.00  0.00     0.008 C   
ENDBRANCH  15  16
ENDBRANCH  12  15
ENDBRANCH   7   8
ENDBRANCH   1   7
BRANCH   3  19
ATOM     19  C12 UNL     1      -0.595  -2.103  -0.281  1.00  0.00     0.114 C   
BRANCH  19  20
ATOM     20  C13 UNL     1      -1.933  -2.828  -0.035  1.00  0.00     0.064 C   
BRANCH  20  21
ATOM     21  C14 UNL     1      -3.087  -1.933   0.467  1.00  0.00    -0.012 C   
ATOM     22  C15 UNL     1      -4.324  -2.793   0.742  1.00  0.00     0.007 C   
ATOM     23  C16 UNL     1      -3.440  -0.826  -0.527  1.00  0.00     0.007 C   
ENDBRANCH  20  21
ENDBRANCH  19  20
BRANCH  19  24
ATOM     24  N4  UNL     1       0.353  -3.129  -0.872  1.00  0.00     0.249 N   
ATOM     25  H27 UNL     1       0.653  -3.721  -0.083  1.00  0.00     0.199 HD  
ATOM     26  H28 UNL     1      -0.141  -3.735  -1.535  1.00  0.00     0.199 HD  
BRANCH  24  27
ATOM     27  C17 UNL     1       1.585  -2.591  -1.521  1.00  0.00     0.164 C   
BRANCH  27  28
ATOM     28  C18 UNL     1       1.302  -1.986  -2.868  1.00  0.00    -0.002 A   
ATOM     29  C19 UNL     1       1.076  -2.819  -3.991  1.00  0.00     0.012 A   
ATOM     30  C23 UNL     1       1.224  -0.590  -3.017  1.00  0.00     0.045 A   
ATOM     31  C20 UNL     1       0.774  -2.273  -5.243  1.00  0.00     0.037 A   
ATOM     32  C22 UNL     1       0.919  -0.085  -4.264  1.00  0.00     0.109 A   
ATOM     33  C21 UNL     1       0.700  -0.901  -5.345  1.00  0.00     0.108 A   
ATOM     34  O1  UNL     1       0.797   1.233  -4.574  1.00  0.00    -0.316 OA  
ATOM     35  O2  UNL     1       0.415  -0.202  -6.474  1.00  0.00    -0.316 OA  
ATOM     36  C24 UNL     1       0.495   1.155  -5.987  1.00  0.00     0.337 C   
ENDBRANCH  27  28
ENDBRANCH  24  27
ENDBRANCH  19  24
ENDBRANCH   3  19
TORSDOF 10
