REMARK SMILES CC(C)C[C@H]([NH2+]Cc1ccc2c(c1)OCO2)c1cn(CCn2cccn2)nn1
REMARK SMILES IDX 17 1 18 2 19 3 27 4 28 5 5 7 4 8 2 9 1 10 3 11 6 12 7 15
REMARK SMILES IDX 8 16 9 17 13 18 10 19 12 20 11 21 14 22 16 23 15 24 20 25
REMARK SMILES IDX 21 26 22 27 23 28 26 29 24 30 25 31
REMARK H PARENT 18 6 6 13 6 14
ROOT
ATOM     1   C14 UNL     1       1.589   0.332   1.506  1.00  0.00     0.127 A   
ATOM     2   C15 UNL     1       2.004   1.210   0.529  1.00  0.00     0.045 A   
ATOM     3   N2  UNL     1       3.361   1.041   0.530  1.00  0.00    -0.210 N   
ATOM     4   N5  UNL     1       3.761   0.333   1.599  1.00  0.00    -0.076 NA  
ATOM     5   N6  UNL     1       2.677  -0.136   2.193  1.00  0.00    -0.132 NA  
ATOM     6   H20 UNL     1       1.482   1.724  -0.266  1.00  0.00     0.083 HD  
ENDROOT
BRANCH   1   7
ATOM     7   C5  UNL     1       0.273  -0.353   1.638  1.00  0.00     0.114 C   
BRANCH   7   8
ATOM     8   C4  UNL     1      -0.208  -0.509   3.087  1.00  0.00     0.064 C   
BRANCH   8   9
ATOM     9   C2  UNL     1      -0.473   0.825   3.818  1.00  0.00    -0.012 C   
ATOM     10  C1  UNL     1      -1.589   1.635   3.156  1.00  0.00     0.007 C   
ATOM     11  C3  UNL     1      -0.833   0.549   5.281  1.00  0.00     0.007 C   
ENDBRANCH   8   9
ENDBRANCH   7   8
BRANCH   7  12
ATOM     12  N1  UNL     1       0.476  -1.721   1.022  1.00  0.00     0.249 N   
ATOM     13  H11 UNL     1       1.101  -2.250   1.643  1.00  0.00     0.199 HD  
ATOM     14  H12 UNL     1       1.069  -1.593   0.173  1.00  0.00     0.199 HD  
BRANCH  12  15
ATOM     15  C6  UNL     1      -0.714  -2.514   0.646  1.00  0.00     0.164 C   
BRANCH  15  16
ATOM     16  C7  UNL     1      -1.585  -1.829  -0.369  1.00  0.00    -0.002 A   
ATOM     17  C8  UNL     1      -1.137  -1.668  -1.703  1.00  0.00     0.012 A   
ATOM     18  C12 UNL     1      -2.834  -1.307   0.008  1.00  0.00     0.045 A   
ATOM     19  C9  UNL     1      -1.917  -0.992  -2.648  1.00  0.00     0.037 A   
ATOM     20  C11 UNL     1      -3.577  -0.644  -0.948  1.00  0.00     0.109 A   
ATOM     21  C10 UNL     1      -3.131  -0.489  -2.237  1.00  0.00     0.108 A   
ATOM     22  O1  UNL     1      -4.793  -0.073  -0.746  1.00  0.00    -0.316 OA  
ATOM     23  O2  UNL     1      -4.011   0.199  -3.010  1.00  0.00    -0.316 OA  
ATOM     24  C13 UNL     1      -5.076   0.443  -2.066  1.00  0.00     0.337 C   
ENDBRANCH  15  16
ENDBRANCH  12  15
ENDBRANCH   7  12
ENDBRANCH   1   7
BRANCH   3  25
ATOM     25  C16 UNL     1       4.240   1.177  -0.613  1.00  0.00     0.155 C   
BRANCH  25  26
ATOM     26  C17 UNL     1       3.792   0.294  -1.777  1.00  0.00     0.153 C   
BRANCH  26  27
ATOM     27  N3  UNL     1       3.756  -1.127  -1.462  1.00  0.00    -0.231 N   
ATOM     28  C18 UNL     1       4.808  -1.988  -1.582  1.00  0.00     0.097 A   
ATOM     29  N4  UNL     1       2.592  -1.746  -1.091  1.00  0.00    -0.190 NA  
ATOM     30  C19 UNL     1       4.312  -3.242  -1.329  1.00  0.00     0.039 A   
ATOM     31  C20 UNL     1       2.949  -3.040  -1.059  1.00  0.00     0.132 A   
ENDBRANCH  26  27
ENDBRANCH  25  26
ENDBRANCH   3  25
TORSDOF 9
