REMARK SMILES Cc1cncc(CCn2cc([C@@H]([NH2+]Cc3ccc4c(c3)OCO4)C(C)C)nn2)n1
REMARK SMILES IDX 9 1 10 2 11 3 27 4 28 5 8 7 7 8 6 9 2 10 3 11 29 12 4 13
REMARK SMILES IDX 5 14 1 15 12 16 13 17 14 20 15 21 16 22 20 23 17 24 19 25
REMARK SMILES IDX 18 26 21 27 23 28 22 29 24 30 25 31 26 32
REMARK H PARENT 10 6 13 18 13 19
ROOT
ATOM     1   N2  UNL     1       1.783  -3.211   0.114  1.00  0.00    -0.212 N   
ATOM     2   C8  UNL     1       1.932  -1.854   0.059  1.00  0.00     0.045 A   
ATOM     3   C9  UNL     1       1.761  -1.449   1.364  1.00  0.00     0.127 A   
ATOM     4   N4  UNL     1       1.535  -2.549   2.152  1.00  0.00    -0.132 NA  
ATOM     5   N5  UNL     1       1.557  -3.620   1.376  1.00  0.00    -0.076 NA  
ATOM     6   H10 UNL     1       2.089  -1.325  -0.872  1.00  0.00     0.083 HD  
ENDROOT
BRANCH   1   7
ATOM     7   C7  UNL     1       1.682  -4.144  -0.991  1.00  0.00     0.140 C   
BRANCH   7   8
ATOM     8   C6  UNL     1       0.303  -4.798  -1.087  1.00  0.00     0.079 C   
BRANCH   8   9
ATOM     9   C5  UNL     1      -0.791  -3.773  -1.210  1.00  0.00     0.061 A   
ATOM     10  C2  UNL     1      -1.868  -2.162  -2.464  1.00  0.00     0.056 A   
ATOM     11  C3  UNL     1      -2.707  -1.900  -1.388  1.00  0.00     0.134 A   
ATOM     12  N6  UNL     1      -0.872  -3.080  -2.372  1.00  0.00    -0.255 NA  
ATOM     13  N1  UNL     1      -2.586  -2.527  -0.193  1.00  0.00    -0.261 NA  
ATOM     14  C4  UNL     1      -1.641  -3.495  -0.145  1.00  0.00     0.134 A   
ATOM     15  C1  UNL     1      -2.033  -1.429  -3.758  1.00  0.00     0.068 C   
ENDBRANCH   8   9
ENDBRANCH   7   8
ENDBRANCH   1   7
BRANCH   3  16
ATOM     16  C10 UNL     1       1.677  -0.083   1.966  1.00  0.00     0.117 C   
BRANCH  16  17
ATOM     17  N3  UNL     1       0.394   0.022   2.768  1.00  0.00     0.249 N   
ATOM     18  H12 UNL     1       0.417  -0.749   3.450  1.00  0.00     0.199 HD  
ATOM     19  H13 UNL     1       0.363   0.897   3.294  1.00  0.00     0.199 HD  
BRANCH  17  20
ATOM     20  C11 UNL     1      -0.885  -0.100   2.000  1.00  0.00     0.164 C   
BRANCH  20  21
ATOM     21  C12 UNL     1      -1.131   1.076   1.096  1.00  0.00    -0.002 A   
ATOM     22  C13 UNL     1      -1.623   2.295   1.622  1.00  0.00     0.012 A   
ATOM     23  C17 UNL     1      -0.841   0.985  -0.276  1.00  0.00     0.045 A   
ATOM     24  C14 UNL     1      -1.826   3.404   0.794  1.00  0.00     0.037 A   
ATOM     25  C16 UNL     1      -1.054   2.095  -1.065  1.00  0.00     0.109 A   
ATOM     26  C15 UNL     1      -1.531   3.272  -0.544  1.00  0.00     0.108 A   
ATOM     27  O1  UNL     1      -0.828   2.171  -2.402  1.00  0.00    -0.316 OA  
ATOM     28  O2  UNL     1      -1.666   4.239  -1.489  1.00  0.00    -0.316 OA  
ATOM     29  C18 UNL     1      -1.231   3.534  -2.671  1.00  0.00     0.337 C   
ENDBRANCH  20  21
ENDBRANCH  17  20
ENDBRANCH  16  17
BRANCH  16  30
ATOM     30  C19 UNL     1       2.887   0.228   2.893  1.00  0.00     0.037 C   
ATOM     31  C20 UNL     1       4.212   0.152   2.118  1.00  0.00     0.014 C   
ATOM     32  C21 UNL     1       2.792   1.612   3.549  1.00  0.00     0.014 C   
ENDBRANCH  16  30
ENDBRANCH   3  16
TORSDOF 8
