REMARK SMILES CC(C)Cn1nccc1Cn1cc([C@@H]([NH2+]Cc2ccc3c(c2)OCO3)C2CCCC2)nn1
REMARK SMILES IDX 11 1 12 2 13 3 31 4 32 5 10 7 9 8 5 9 6 10 7 11 8 12 4 13
REMARK SMILES IDX 2 14 1 15 3 16 14 17 15 18 16 21 17 22 18 23 22 24 19 25
REMARK SMILES IDX 21 26 20 27 23 28 25 29 24 30 26 31 27 32 30 33 28 34 29 35
REMARK H PARENT 12 6 15 19 15 20
ROOT
ATOM     1   N3  UNL     1       0.174  -2.302  -0.819  1.00  0.00    -0.206 N   
ATOM     2   C9  UNL     1       0.728  -1.292  -1.558  1.00  0.00     0.046 A   
ATOM     3   C10 UNL     1      -0.030  -0.187  -1.240  1.00  0.00     0.127 A   
ATOM     4   N5  UNL     1      -1.039  -0.569  -0.392  1.00  0.00    -0.132 NA  
ATOM     5   N6  UNL     1      -0.917  -1.866  -0.160  1.00  0.00    -0.076 NA  
ATOM     6   H14 UNL     1       1.598  -1.444  -2.181  1.00  0.00     0.083 HD  
ENDROOT
BRANCH   1   7
ATOM     7   C8  UNL     1       0.603  -3.689  -0.719  1.00  0.00     0.187 C   
BRANCH   7   8
ATOM     8   C7  UNL     1       1.946  -3.788  -0.081  1.00  0.00     0.049 A   
ATOM     9   N1  UNL     1       2.183  -3.702   1.272  1.00  0.00    -0.228 N   
ATOM     10  N2  UNL     1       3.490  -3.827   1.579  1.00  0.00    -0.190 NA  
ATOM     11  C5  UNL     1       4.094  -4.017   0.407  1.00  0.00     0.133 A   
ATOM     12  C6  UNL     1       3.185  -4.000  -0.660  1.00  0.00     0.044 A   
BRANCH   9  13
ATOM     13  C4  UNL     1       1.232  -3.573   2.368  1.00  0.00     0.135 C   
BRANCH  13  14
ATOM     14  C2  UNL     1       1.516  -2.396   3.319  1.00  0.00     0.002 C   
ATOM     15  C1  UNL     1       1.346  -1.044   2.624  1.00  0.00     0.009 C   
ATOM     16  C3  UNL     1       0.590  -2.474   4.534  1.00  0.00     0.009 C   
ENDBRANCH  13  14
ENDBRANCH   9  13
ENDBRANCH   7   8
ENDBRANCH   1   7
BRANCH   3  17
ATOM     17  C11 UNL     1       0.059   1.237  -1.692  1.00  0.00     0.117 C   
BRANCH  17  18
ATOM     18  N4  UNL     1      -1.288   1.906  -1.563  1.00  0.00     0.249 N   
ATOM     19  H16 UNL     1      -1.203   2.928  -1.537  1.00  0.00     0.199 HD  
ATOM     20  H17 UNL     1      -1.670   1.625  -0.647  1.00  0.00     0.199 HD  
BRANCH  18  21
ATOM     21  C12 UNL     1      -2.293   1.532  -2.594  1.00  0.00     0.164 C   
BRANCH  21  22
ATOM     22  C13 UNL     1      -3.636   2.108  -2.243  1.00  0.00    -0.002 A   
ATOM     23  C14 UNL     1      -4.513   1.389  -1.395  1.00  0.00     0.012 A   
ATOM     24  C18 UNL     1      -4.005   3.385  -2.699  1.00  0.00     0.045 A   
ATOM     25  C15 UNL     1      -5.748   1.927  -1.016  1.00  0.00     0.037 A   
ATOM     26  C17 UNL     1      -5.229   3.885  -2.305  1.00  0.00     0.109 A   
ATOM     27  C16 UNL     1      -6.076   3.177  -1.488  1.00  0.00     0.108 A   
ATOM     28  O1  UNL     1      -5.736   5.098  -2.653  1.00  0.00    -0.316 OA  
ATOM     29  O2  UNL     1      -7.225   3.852  -1.222  1.00  0.00    -0.316 OA  
ATOM     30  C19 UNL     1      -7.024   5.056  -1.994  1.00  0.00     0.337 C   
ENDBRANCH  21  22
ENDBRANCH  18  21
ENDBRANCH  17  18
BRANCH  17  31
ATOM     31  C20 UNL     1       1.079   2.099  -0.923  1.00  0.00     0.043 C   
ATOM     32  C21 UNL     1       0.814   2.291   0.576  1.00  0.00     0.010 C   
ATOM     33  C24 UNL     1       2.524   1.600  -0.955  1.00  0.00     0.010 C   
ATOM     34  C22 UNL     1       2.171   2.653   1.187  1.00  0.00     0.001 C   
ATOM     35  C23 UNL     1       3.205   2.487   0.077  1.00  0.00     0.001 C   
ENDBRANCH  17  31
ENDBRANCH   3  17
TORSDOF 9
