REMARK SMILES CC(C)[C@H]([NH2+]Cc1ccc2c(c1)OCO2)c1cn(C(=O)c2ccc(Cl)nc2)nn1
REMARK SMILES IDX 16 1 17 2 18 3 28 4 29 5 4 6 2 7 1 8 3 9 5 10 6 13 7 14 8 15
REMARK SMILES IDX 12 16 9 17 11 18 10 19 13 20 15 21 14 22 19 23 20 24 21 25
REMARK SMILES IDX 22 26 27 27 23 28 26 29 24 30 25 31
REMARK H PARENT 5 11 5 12
ROOT
ATOM     1   C13 UNL     1      -0.856   0.528   0.431  1.00  0.00     0.128 A   
ATOM     2   C14 UNL     1       0.109   1.374   0.923  1.00  0.00     0.139 A   
ATOM     3   N2  UNL     1       0.268   1.008   2.249  1.00  0.00    -0.143 N   
ATOM     4   N4  UNL     1      -0.535  -0.051   2.513  1.00  0.00    -0.068 NA  
ATOM     5   N5  UNL     1      -1.236  -0.334   1.426  1.00  0.00    -0.131 NA  
ENDROOT
BRANCH   1   6
ATOM     6   C4  UNL     1      -1.461   0.394  -0.932  1.00  0.00     0.117 C   
BRANCH   6   7
ATOM     7   C2  UNL     1      -2.721   1.272  -1.151  1.00  0.00     0.037 C   
ATOM     8   C1  UNL     1      -3.869   0.980  -0.176  1.00  0.00     0.014 C   
ATOM     9   C3  UNL     1      -2.385   2.768  -1.122  1.00  0.00     0.014 C   
ENDBRANCH   6   7
BRANCH   6  10
ATOM     10  N1  UNL     1      -1.839  -1.050  -1.187  1.00  0.00     0.249 N   
ATOM     11  H9  UNL     1      -2.303  -1.385  -0.329  1.00  0.00     0.199 HD  
ATOM     12  H10 UNL     1      -2.529  -1.110  -1.943  1.00  0.00     0.199 HD  
BRANCH  10  13
ATOM     13  C5  UNL     1      -0.717  -1.986  -1.486  1.00  0.00     0.164 C   
BRANCH  13  14
ATOM     14  C6  UNL     1      -0.247  -1.877  -2.909  1.00  0.00    -0.002 A   
ATOM     15  C7  UNL     1      -0.986  -2.493  -3.951  1.00  0.00     0.012 A   
ATOM     16  C11 UNL     1       0.911  -1.143  -3.224  1.00  0.00     0.045 A   
ATOM     17  C8  UNL     1      -0.577  -2.385  -5.283  1.00  0.00     0.037 A   
ATOM     18  C10 UNL     1       1.282  -1.049  -4.549  1.00  0.00     0.109 A   
ATOM     19  C9  UNL     1       0.561  -1.652  -5.550  1.00  0.00     0.108 A   
ATOM     20  O1  UNL     1       2.364  -0.371  -5.022  1.00  0.00    -0.316 OA  
ATOM     21  O2  UNL     1       1.100  -1.438  -6.778  1.00  0.00    -0.316 OA  
ATOM     22  C12 UNL     1       2.269  -0.658  -6.436  1.00  0.00     0.337 C   
ENDBRANCH  13  14
ENDBRANCH  10  13
ENDBRANCH   6  10
ENDBRANCH   1   6
BRANCH   3  23
ATOM     23  C15 UNL     1       1.137   1.554   3.207  1.00  0.00     0.272 C   
ATOM     24  O3  UNL     1       1.883   2.448   2.807  1.00  0.00    -0.269 OA  
BRANCH  23  25
ATOM     25  C16 UNL     1       1.236   1.134   4.628  1.00  0.00     0.058 A   
ATOM     26  C17 UNL     1       2.448   1.310   5.309  1.00  0.00     0.018 A   
ATOM     27  C20 UNL     1       0.165   0.614   5.343  1.00  0.00     0.126 A   
ATOM     28  C18 UNL     1       2.547   0.938   6.649  1.00  0.00     0.042 A   
ATOM     29  N3  UNL     1       0.233   0.244   6.645  1.00  0.00    -0.244 NA  
ATOM     30  C19 UNL     1       1.421   0.416   7.264  1.00  0.00     0.129 A   
ATOM     31  CL1 UNL     1       1.447  -0.051   8.915  1.00  0.00    -0.062 Cl  
ENDBRANCH  23  25
ENDBRANCH   3  23
TORSDOF 7
