REMARK SMILES COCc1cccc(Cn2cc([C@@H]([NH2+]Cc3ccc4c(c3)OCO4)C3CCCC3)nn2)c1
REMARK SMILES IDX 10 1 11 2 12 3 30 4 31 5 9 7 8 8 4 9 5 10 32 11 6 12 7 13
REMARK SMILES IDX 3 14 2 15 1 16 13 17 14 18 15 21 16 22 17 23 21 24 18 25
REMARK SMILES IDX 20 26 19 27 22 28 24 29 23 30 25 31 26 32 29 33 27 34 28 35
REMARK H PARENT 11 6 14 19 14 20
ROOT
ATOM     1   N1  UNL     1      -0.335  -3.662  -1.597  1.00  0.00    -0.208 N   
ATOM     2   C9  UNL     1       0.484  -3.087  -0.663  1.00  0.00     0.046 A   
ATOM     3   C10 UNL     1      -0.394  -2.464   0.200  1.00  0.00     0.127 A   
ATOM     4   N3  UNL     1      -1.682  -2.719  -0.196  1.00  0.00    -0.132 NA  
ATOM     5   N4  UNL     1      -1.634  -3.462  -1.289  1.00  0.00    -0.076 NA  
ATOM     6   H11 UNL     1       1.563  -3.110  -0.746  1.00  0.00     0.083 HD  
ENDROOT
BRANCH   1   7
ATOM     7   C8  UNL     1       0.043  -4.240  -2.876  1.00  0.00     0.169 C   
BRANCH   7   8
ATOM     8   C7  UNL     1       0.517  -3.160  -3.824  1.00  0.00    -0.028 A   
ATOM     9   C3  UNL     1       0.093  -1.081  -5.043  1.00  0.00    -0.022 A   
ATOM     10  C4  UNL     1       1.397  -1.122  -5.544  1.00  0.00     0.006 A   
ATOM     11  C25 UNL     1      -0.340  -2.110  -4.194  1.00  0.00     0.011 A   
ATOM     12  C5  UNL     1       2.255  -2.168  -5.195  1.00  0.00     0.001 A   
ATOM     13  C6  UNL     1       1.819  -3.183  -4.341  1.00  0.00     0.005 A   
BRANCH   9  14
ATOM     14  C2  UNL     1      -0.855   0.027  -5.420  1.00  0.00     0.195 C   
BRANCH  14  15
ATOM     15  O1  UNL     1      -1.177   0.773  -4.243  1.00  0.00    -0.380 OA  
ATOM     16  C1  UNL     1      -2.464   1.386  -4.356  1.00  0.00     0.195 C   
ENDBRANCH  14  15
ENDBRANCH   9  14
ENDBRANCH   7   8
ENDBRANCH   1   7
BRANCH   3  17
ATOM     17  C11 UNL     1      -0.145  -1.513   1.320  1.00  0.00     0.117 C   
BRANCH  17  18
ATOM     18  N2  UNL     1      -0.924  -0.245   1.073  1.00  0.00     0.249 N   
ATOM     19  H13 UNL     1      -1.906  -0.520   0.913  1.00  0.00     0.199 HD  
ATOM     20  H14 UNL     1      -0.923   0.364   1.898  1.00  0.00     0.199 HD  
BRANCH  18  21
ATOM     21  C12 UNL     1      -0.502   0.558  -0.114  1.00  0.00     0.164 C   
BRANCH  21  22
ATOM     22  C13 UNL     1      -1.296   1.834  -0.162  1.00  0.00    -0.002 A   
ATOM     23  C14 UNL     1      -2.628   1.821  -0.644  1.00  0.00     0.012 A   
ATOM     24  C18 UNL     1      -0.748   3.031   0.329  1.00  0.00     0.045 A   
ATOM     25  C15 UNL     1      -3.401   2.988  -0.650  1.00  0.00     0.037 A   
ATOM     26  C17 UNL     1      -1.542   4.159   0.315  1.00  0.00     0.109 A   
ATOM     27  C16 UNL     1      -2.833   4.138  -0.154  1.00  0.00     0.108 A   
ATOM     28  O2  UNL     1      -1.169   5.388   0.755  1.00  0.00    -0.316 OA  
ATOM     29  O3  UNL     1      -3.434   5.354  -0.073  1.00  0.00    -0.316 OA  
ATOM     30  C19 UNL     1      -2.376   6.146   0.506  1.00  0.00     0.337 C   
ENDBRANCH  21  22
ENDBRANCH  18  21
ENDBRANCH  17  18
BRANCH  17  31
ATOM     31  C20 UNL     1      -0.575  -2.078   2.686  1.00  0.00     0.043 C   
ATOM     32  C21 UNL     1      -0.206  -1.175   3.868  1.00  0.00     0.010 C   
ATOM     33  C24 UNL     1       0.127  -3.385   3.067  1.00  0.00     0.010 C   
ATOM     34  C22 UNL     1      -0.250  -2.087   5.087  1.00  0.00     0.001 C   
ATOM     35  C23 UNL     1      -0.125  -3.514   4.562  1.00  0.00     0.001 C   
ENDBRANCH  17  31
ENDBRANCH   3  17
TORSDOF 9
