REMARK SMILES Cc1ccc([C@@H](CO)n2cc([C@H](CC(C)C)[NH2+]Cc3ccc4c(c3)OCO4)nn2)nc1
REMARK SMILES IDX 9 1 10 2 11 3 28 4 29 5 6 7 5 8 2 9 3 10 31 11 4 12 30 13
REMARK SMILES IDX 1 14 7 15 8 16 12 18 13 19 14 20 15 21 16 22 17 23 18 26
REMARK SMILES IDX 19 27 20 28 24 29 21 30 23 31 22 32 25 33 27 34 26 35
REMARK H PARENT 10 6 8 17 17 24 17 25
ROOT
ATOM     1   N1  UNL     1      -0.627  -1.847   1.509  1.00  0.00    -0.201 N   
ATOM     2   C8  UNL     1      -0.741  -0.524   1.167  1.00  0.00     0.046 A   
ATOM     3   C9  UNL     1      -2.095  -0.286   1.190  1.00  0.00     0.127 A   
ATOM     4   N3  UNL     1      -2.746  -1.418   1.601  1.00  0.00    -0.132 NA  
ATOM     5   N4  UNL     1      -1.841  -2.364   1.796  1.00  0.00    -0.075 NA  
ATOM     6   H10 UNL     1       0.113   0.072   0.874  1.00  0.00     0.083 HD  
ENDROOT
BRANCH   1   7
ATOM     7   C6  UNL     1       0.565  -2.690   1.553  1.00  0.00     0.174 C   
BRANCH   7   8
ATOM     8   C5  UNL     1       1.068  -2.961   0.143  1.00  0.00     0.065 A   
ATOM     9   C2  UNL     1       2.042  -3.420  -2.405  1.00  0.00    -0.033 A   
ATOM     10  C3  UNL     1       1.891  -4.487  -1.522  1.00  0.00     0.007 A   
ATOM     11  C23 UNL     1       1.711  -2.155  -1.940  1.00  0.00     0.114 A   
ATOM     12  C4  UNL     1       1.400  -4.260  -0.237  1.00  0.00     0.026 A   
ATOM     13  N5  UNL     1       1.223  -1.903  -0.701  1.00  0.00    -0.259 NA  
ATOM     14  C1  UNL     1       2.610  -3.619  -3.775  1.00  0.00     0.046 C   
ENDBRANCH   7   8
BRANCH   7  15
ATOM     15  C7  UNL     1       1.664  -2.084   2.434  1.00  0.00     0.187 C   
BRANCH  15  16
ATOM     16  O1  UNL     1       2.579  -3.098   2.853  1.00  0.00    -0.394 OA  
ATOM     17  H9  UNL     1       3.296  -2.663   3.350  1.00  0.00     0.210 HD  
ENDBRANCH  15  16
ENDBRANCH   7  15
ENDBRANCH   1   7
BRANCH   3  18
ATOM     18  C10 UNL     1      -2.879   0.901   0.751  1.00  0.00     0.114 C   
BRANCH  18  19
ATOM     19  C11 UNL     1      -3.470   1.694   1.932  1.00  0.00     0.064 C   
BRANCH  19  20
ATOM     20  C12 UNL     1      -2.428   2.320   2.886  1.00  0.00    -0.012 C   
ATOM     21  C13 UNL     1      -1.511   3.317   2.176  1.00  0.00     0.007 C   
ATOM     22  C14 UNL     1      -3.145   3.015   4.047  1.00  0.00     0.007 C   
ENDBRANCH  19  20
ENDBRANCH  18  19
BRANCH  18  23
ATOM     23  N2  UNL     1      -4.048   0.460  -0.111  1.00  0.00     0.249 N   
ATOM     24  H21 UNL     1      -4.593  -0.201   0.460  1.00  0.00     0.199 HD  
ATOM     25  H22 UNL     1      -4.651   1.262  -0.316  1.00  0.00     0.199 HD  
BRANCH  23  26
ATOM     26  C15 UNL     1      -3.707  -0.243  -1.386  1.00  0.00     0.164 C   
BRANCH  26  27
ATOM     27  C16 UNL     1      -2.907   0.601  -2.339  1.00  0.00    -0.002 A   
ATOM     28  C17 UNL     1      -3.509   1.687  -3.018  1.00  0.00     0.012 A   
ATOM     29  C21 UNL     1      -1.542   0.329  -2.541  1.00  0.00     0.045 A   
ATOM     30  C18 UNL     1      -2.762   2.496  -3.881  1.00  0.00     0.037 A   
ATOM     31  C20 UNL     1      -0.835   1.145  -3.399  1.00  0.00     0.109 A   
ATOM     32  C19 UNL     1      -1.427   2.199  -4.049  1.00  0.00     0.108 A   
ATOM     33  O2  UNL     1       0.484   1.023  -3.702  1.00  0.00    -0.316 OA  
ATOM     34  O3  UNL     1      -0.557   2.875  -4.842  1.00  0.00    -0.316 OA  
ATOM     35  C22 UNL     1       0.652   2.113  -4.637  1.00  0.00     0.337 C   
ENDBRANCH  26  27
ENDBRANCH  23  26
ENDBRANCH  18  23
ENDBRANCH   3  18
TORSDOF 10
