REMARK SMILES Cc1ccc([C@H](CO)n2cc([C@H](CC(C)C)[NH2+]Cc3ccc4c(c3)OCO4)nn2)nc1
REMARK SMILES IDX 9 1 10 2 11 3 28 4 29 5 6 7 5 8 2 9 3 10 31 11 4 12 30 13
REMARK SMILES IDX 1 14 7 15 8 16 12 18 13 19 14 20 15 21 16 22 17 23 18 26
REMARK SMILES IDX 19 27 20 28 24 29 21 30 23 31 22 32 25 33 27 34 26 35
REMARK H PARENT 10 6 8 17 17 24 17 25
ROOT
ATOM     1   N1  UNL     1      -0.947  -2.560   1.731  1.00  0.00    -0.201 N   
ATOM     2   C8  UNL     1      -1.472  -1.445   1.130  1.00  0.00     0.046 A   
ATOM     3   C9  UNL     1      -1.530  -0.511   2.142  1.00  0.00     0.127 A   
ATOM     4   N3  UNL     1      -1.069  -1.072   3.299  1.00  0.00    -0.132 NA  
ATOM     5   N4  UNL     1      -0.706  -2.317   3.038  1.00  0.00    -0.075 NA  
ATOM     6   H10 UNL     1      -1.688  -1.412   0.072  1.00  0.00     0.083 HD  
ENDROOT
BRANCH   1   7
ATOM     7   C6  UNL     1      -0.482  -3.800   1.120  1.00  0.00     0.174 C   
BRANCH   7   8
ATOM     8   C5  UNL     1       0.875  -3.542   0.489  1.00  0.00     0.065 A   
ATOM     9   C2  UNL     1       3.327  -3.022  -0.674  1.00  0.00    -0.033 A   
ATOM     10  C3  UNL     1       3.267  -3.754   0.511  1.00  0.00     0.007 A   
ATOM     11  C23 UNL     1       2.127  -2.590  -1.220  1.00  0.00     0.114 A   
ATOM     12  C4  UNL     1       2.033  -4.016   1.103  1.00  0.00     0.026 A   
ATOM     13  N5  UNL     1       0.912  -2.812  -0.660  1.00  0.00    -0.259 NA  
ATOM     14  C1  UNL     1       4.636  -2.759  -1.351  1.00  0.00     0.046 C   
ENDBRANCH   7   8
BRANCH   7  15
ATOM     15  C7  UNL     1      -1.468  -4.385   0.097  1.00  0.00     0.187 C   
BRANCH  15  16
ATOM     16  O1  UNL     1      -2.683  -4.778   0.734  1.00  0.00    -0.394 OA  
ATOM     17  H9  UNL     1      -3.211  -5.273   0.080  1.00  0.00     0.210 HD  
ENDBRANCH  15  16
ENDBRANCH   7  15
ENDBRANCH   1   7
BRANCH   3  18
ATOM     18  C10 UNL     1      -1.841   0.946   2.098  1.00  0.00     0.114 C   
BRANCH  18  19
ATOM     19  C11 UNL     1      -3.170   1.274   1.394  1.00  0.00     0.064 C   
BRANCH  19  20
ATOM     20  C12 UNL     1      -4.424   0.665   2.056  1.00  0.00    -0.012 C   
ATOM     21  C13 UNL     1      -4.619   1.149   3.494  1.00  0.00     0.007 C   
ATOM     22  C14 UNL     1      -5.664   1.006   1.224  1.00  0.00     0.007 C   
ENDBRANCH  19  20
ENDBRANCH  18  19
BRANCH  18  23
ATOM     23  N2  UNL     1      -0.744   1.675   1.355  1.00  0.00     0.249 N   
ATOM     24  H21 UNL     1      -1.019   2.643   1.161  1.00  0.00     0.199 HD  
ATOM     25  H22 UNL     1      -0.619   1.221   0.442  1.00  0.00     0.199 HD  
BRANCH  23  26
ATOM     26  C15 UNL     1       0.582   1.689   2.045  1.00  0.00     0.164 C   
BRANCH  26  27
ATOM     27  C16 UNL     1       1.656   2.128   1.089  1.00  0.00    -0.002 A   
ATOM     28  C17 UNL     1       2.012   3.492   0.979  1.00  0.00     0.012 A   
ATOM     29  C21 UNL     1       2.272   1.178   0.254  1.00  0.00     0.045 A   
ATOM     30  C18 UNL     1       2.978   3.906   0.054  1.00  0.00     0.037 A   
ATOM     31  C20 UNL     1       3.217   1.620  -0.648  1.00  0.00     0.109 A   
ATOM     32  C19 UNL     1       3.560   2.946  -0.744  1.00  0.00     0.108 A   
ATOM     33  O2  UNL     1       3.900   0.841  -1.526  1.00  0.00    -0.316 OA  
ATOM     34  O3  UNL     1       4.506   3.168  -1.693  1.00  0.00    -0.316 OA  
ATOM     35  C22 UNL     1       4.743   1.826  -2.167  1.00  0.00     0.337 C   
ENDBRANCH  26  27
ENDBRANCH  23  26
ENDBRANCH  18  23
ENDBRANCH   3  18
TORSDOF 10
