REMARK SMILES c1coc(-c2n[nH]cc2Cn2cc([C@@H]([NH2+]Cc3ccc4c(c3)OCO4)C3CCCC3)nn2)c1
REMARK SMILES IDX 11 1 12 2 13 3 31 4 32 5 10 7 9 8 5 9 6 10 7 11 8 12 4 14
REMARK SMILES IDX 1 15 2 16 33 17 3 18 14 19 15 20 16 23 17 24 18 25 22 26
REMARK SMILES IDX 19 27 21 28 20 29 23 30 25 31 24 32 26 33 27 34 30 35 28 36
REMARK SMILES IDX 29 37
REMARK H PARENT 12 6 7 13 15 21 15 22
ROOT
ATOM     1   N3  UNL     1      -1.083   1.964   1.969  1.00  0.00    -0.208 N   
ATOM     2   C8  UNL     1      -0.557   1.455   0.814  1.00  0.00     0.046 A   
ATOM     3   C9  UNL     1      -1.526   0.590   0.358  1.00  0.00     0.127 A   
ATOM     4   N5  UNL     1      -2.603   0.631   1.204  1.00  0.00    -0.132 NA  
ATOM     5   N6  UNL     1      -2.329   1.487   2.175  1.00  0.00    -0.076 NA  
ATOM     6   H7  UNL     1       0.432   1.713   0.463  1.00  0.00     0.083 HD  
ENDROOT
BRANCH   1   7
ATOM     7   C7  UNL     1      -0.465   2.880   2.917  1.00  0.00     0.173 C   
BRANCH   7   8
ATOM     8   C6  UNL     1      -0.133   2.178   4.186  1.00  0.00     0.017 A   
ATOM     9   C4  UNL     1       0.979   1.342   4.478  1.00  0.00     0.118 A   
ATOM     10  N1  UNL     1       0.924   0.852   5.722  1.00  0.00    -0.182 NA  
ATOM     11  N2  UNL     1      -0.181   1.401   6.245  1.00  0.00    -0.245 N   
ATOM     12  C5  UNL     1      -0.855   2.193   5.365  1.00  0.00     0.099 A   
ATOM     13  H3  UNL     1      -0.418   1.186   7.210  1.00  0.00     0.175 HD  
BRANCH   9  14
ATOM     14  C3  UNL     1       2.161   0.982   3.517  1.00  0.00     0.109 A   
ATOM     15  C1  UNL     1       4.065   0.122   2.692  1.00  0.00     0.028 A   
ATOM     16  C2  UNL     1       3.463   0.921   1.750  1.00  0.00     0.136 A   
ATOM     17  C24 UNL     1       3.227   0.161   3.831  1.00  0.00     0.038 A   
ATOM     18  O1  UNL     1       2.302   1.436   2.233  1.00  0.00    -0.316 OA  
ENDBRANCH   9  14
ENDBRANCH   7   8
ENDBRANCH   1   7
BRANCH   3  19
ATOM     19  C10 UNL     1      -1.518  -0.382  -0.775  1.00  0.00     0.117 C   
BRANCH  19  20
ATOM     20  N4  UNL     1      -2.003  -1.723  -0.251  1.00  0.00     0.249 N   
ATOM     21  H9  UNL     1      -2.876  -1.526   0.260  1.00  0.00     0.199 HD  
ATOM     22  H10 UNL     1      -2.241  -2.355  -1.017  1.00  0.00     0.199 HD  
BRANCH  20  23
ATOM     23  C11 UNL     1      -1.084  -2.431   0.692  1.00  0.00     0.164 C   
BRANCH  23  24
ATOM     24  C12 UNL     1       0.194  -2.873   0.034  1.00  0.00    -0.002 A   
ATOM     25  C13 UNL     1       0.192  -3.945  -0.891  1.00  0.00     0.012 A   
ATOM     26  C17 UNL     1       1.396  -2.196   0.306  1.00  0.00     0.045 A   
ATOM     27  C14 UNL     1       1.367  -4.332  -1.544  1.00  0.00     0.037 A   
ATOM     28  C16 UNL     1       2.536  -2.600  -0.357  1.00  0.00     0.109 A   
ATOM     29  C15 UNL     1       2.521  -3.637  -1.257  1.00  0.00     0.108 A   
ATOM     30  O2  UNL     1       3.770  -2.047  -0.224  1.00  0.00    -0.316 OA  
ATOM     31  O3  UNL     1       3.745  -3.872  -1.798  1.00  0.00    -0.316 OA  
ATOM     32  C18 UNL     1       4.544  -2.884  -1.113  1.00  0.00     0.337 C   
ENDBRANCH  23  24
ENDBRANCH  20  23
ENDBRANCH  19  20
BRANCH  19  33
ATOM     33  C19 UNL     1      -2.445   0.051  -1.940  1.00  0.00     0.043 C   
ATOM     34  C20 UNL     1      -2.076   1.417  -2.539  1.00  0.00     0.010 C   
ATOM     35  C23 UNL     1      -2.317  -0.839  -3.187  1.00  0.00     0.010 C   
ATOM     36  C21 UNL     1      -0.910   1.131  -3.479  1.00  0.00     0.001 C   
ATOM     37  C22 UNL     1      -1.087  -0.319  -3.925  1.00  0.00     0.001 C   
ENDBRANCH  19  33
ENDBRANCH   3  19
TORSDOF 8
