REMARK SMILES Cc1ccccc1CCn1cc([C@H](CC(C)C)[NH2+]Cc2ccc3c(c2)OCO3)nn1
REMARK SMILES IDX 10 1 11 2 12 3 29 4 30 5 9 7 8 8 7 9 2 10 3 11 4 12 6 13
REMARK SMILES IDX 5 14 1 15 13 16 14 17 15 18 16 19 17 20 18 21 19 24 20 25
REMARK SMILES IDX 21 26 25 27 22 28 24 29 23 30 26 31 28 32 27 33
REMARK H PARENT 11 6 18 22 18 23
ROOT
ATOM     1   N1  UNL     1      -1.228  -2.212  -1.743  1.00  0.00    -0.212 N   
ATOM     2   C10 UNL     1      -0.974  -2.018  -0.414  1.00  0.00     0.045 A   
ATOM     3   C11 UNL     1       0.157  -1.234  -0.407  1.00  0.00     0.127 A   
ATOM     4   N3  UNL     1       0.585  -1.049  -1.698  1.00  0.00    -0.132 NA  
ATOM     5   N4  UNL     1      -0.260  -1.670  -2.504  1.00  0.00    -0.076 NA  
ATOM     6   H12 UNL     1      -1.636  -2.381   0.361  1.00  0.00     0.083 HD  
ENDROOT
BRANCH   1   7
ATOM     7   C9  UNL     1      -2.382  -2.846  -2.345  1.00  0.00     0.139 C   
BRANCH   7   8
ATOM     8   C8  UNL     1      -3.500  -1.850  -2.674  1.00  0.00     0.057 C   
BRANCH   8   9
ATOM     9   C7  UNL     1      -4.080  -1.181  -1.441  1.00  0.00    -0.043 A   
ATOM     10  C2  UNL     1      -3.836   0.172  -1.120  1.00  0.00    -0.048 A   
ATOM     11  C3  UNL     1      -4.376   0.702   0.063  1.00  0.00     0.004 A   
ATOM     12  C4  UNL     1      -5.145  -0.086   0.919  1.00  0.00     0.000 A   
ATOM     13  C6  UNL     1      -4.871  -1.956  -0.573  1.00  0.00     0.004 A   
ATOM     14  C5  UNL     1      -5.397  -1.414   0.600  1.00  0.00     0.000 A   
ATOM     15  C1  UNL     1      -3.041   1.083  -2.018  1.00  0.00     0.044 C   
ENDBRANCH   8   9
ENDBRANCH   7   8
ENDBRANCH   1   7
BRANCH   3  16
ATOM     16  C12 UNL     1       0.902  -0.596   0.720  1.00  0.00     0.114 C   
BRANCH  16  17
ATOM     17  C13 UNL     1       0.214   0.717   1.148  1.00  0.00     0.064 C   
BRANCH  17  18
ATOM     18  C14 UNL     1       0.713   1.311   2.485  1.00  0.00    -0.012 C   
ATOM     19  C15 UNL     1       0.289   0.458   3.684  1.00  0.00     0.007 C   
ATOM     20  C16 UNL     1       0.167   2.735   2.652  1.00  0.00     0.007 C   
ENDBRANCH  17  18
ENDBRANCH  16  17
BRANCH  16  21
ATOM     21  N2  UNL     1       2.308  -0.272   0.284  1.00  0.00     0.249 N   
ATOM     22  H23 UNL     1       2.231   0.106  -0.673  1.00  0.00     0.199 HD  
ATOM     23  H24 UNL     1       2.730   0.472   0.846  1.00  0.00     0.199 HD  
BRANCH  21  24
ATOM     24  C17 UNL     1       3.245  -1.427   0.226  1.00  0.00     0.164 C   
BRANCH  24  25
ATOM     25  C18 UNL     1       4.548  -0.998  -0.388  1.00  0.00    -0.002 A   
ATOM     26  C19 UNL     1       4.703  -1.009  -1.796  1.00  0.00     0.012 A   
ATOM     27  C23 UNL     1       5.593  -0.520   0.421  1.00  0.00     0.045 A   
ATOM     28  C20 UNL     1       5.886  -0.559  -2.390  1.00  0.00     0.037 A   
ATOM     29  C22 UNL     1       6.746  -0.084  -0.200  1.00  0.00     0.109 A   
ATOM     30  C21 UNL     1       6.888  -0.102  -1.563  1.00  0.00     0.108 A   
ATOM     31  O1  UNL     1       7.845   0.408   0.431  1.00  0.00    -0.316 OA  
ATOM     32  O2  UNL     1       8.096   0.374  -1.966  1.00  0.00    -0.316 OA  
ATOM     33  C24 UNL     1       8.711   0.675  -0.696  1.00  0.00     0.337 C   
ENDBRANCH  24  25
ENDBRANCH  21  24
ENDBRANCH  16  21
ENDBRANCH   3  16
TORSDOF 9
