REMARK SMILES OC[C@H](c1cccc(Cl)c1)n1cc([C@@H]([NH2+]Cc2ccc3c(c2)OCO3)C2CCCCC2)nn1
REMARK SMILES IDX 11 1 12 2 13 3 32 4 33 5 3 7 2 8 1 9 4 11 5 12 10 13 6 14
REMARK SMILES IDX 8 15 7 16 9 17 14 18 15 19 16 22 17 23 18 24 22 25 19 26
REMARK SMILES IDX 21 27 20 28 23 29 25 30 24 31 26 32 27 33 31 34 28 35 30 36
REMARK SMILES IDX 29 37
REMARK H PARENT 12 6 1 10 15 20 15 21
ROOT
ATOM     1   N1  UNL     1      -0.208   3.092   0.104  1.00  0.00    -0.202 N   
ATOM     2   C9  UNL     1      -0.275   1.762  -0.214  1.00  0.00     0.046 A   
ATOM     3   C10 UNL     1       1.042   1.360  -0.264  1.00  0.00     0.127 A   
ATOM     4   N3  UNL     1       1.844   2.416   0.064  1.00  0.00    -0.132 NA  
ATOM     5   N4  UNL     1       1.073   3.468   0.288  1.00  0.00    -0.075 NA  
ATOM     6   H9  UNL     1      -1.216   1.257  -0.375  1.00  0.00     0.083 HD  
ENDROOT
BRANCH   1   7
ATOM     7   C2  UNL     1      -1.293   4.058   0.282  1.00  0.00     0.155 C   
BRANCH   7   8
ATOM     8   C1  UNL     1      -1.801   4.045   1.738  1.00  0.00     0.185 C   
BRANCH   8   9
ATOM     9   O1  UNL     1      -2.201   2.746   2.183  1.00  0.00    -0.394 OA  
ATOM     10  H1  UNL     1      -2.623   2.876   3.056  1.00  0.00     0.210 HD  
ENDBRANCH   8   9
ENDBRANCH   7   8
BRANCH   7  11
ATOM     11  C3  UNL     1      -2.340   3.905  -0.821  1.00  0.00    -0.022 A   
ATOM     12  C4  UNL     1      -2.062   4.424  -2.102  1.00  0.00     0.006 A   
ATOM     13  C8  UNL     1      -3.560   3.236  -0.629  1.00  0.00     0.026 A   
ATOM     14  C5  UNL     1      -2.974   4.282  -3.151  1.00  0.00     0.002 A   
ATOM     15  C7  UNL     1      -4.465   3.092  -1.684  1.00  0.00     0.041 A   
ATOM     16  C6  UNL     1      -4.179   3.613  -2.942  1.00  0.00     0.020 A   
ATOM     17  CL1 UNL     1      -5.938   2.241  -1.426  1.00  0.00    -0.084 Cl  
ENDBRANCH   7  11
ENDBRANCH   1   7
BRANCH   3  18
ATOM     18  C11 UNL     1       1.639   0.014  -0.527  1.00  0.00     0.117 C   
BRANCH  18  19
ATOM     19  N2  UNL     1       1.244  -0.938   0.575  1.00  0.00     0.249 N   
ATOM     20  H11 UNL     1       1.531  -1.893   0.355  1.00  0.00     0.199 HD  
ATOM     21  H12 UNL     1       0.219  -0.954   0.654  1.00  0.00     0.199 HD  
BRANCH  19  22
ATOM     22  C12 UNL     1       1.806  -0.602   1.920  1.00  0.00     0.164 C   
BRANCH  22  23
ATOM     23  C13 UNL     1       1.305  -1.573   2.952  1.00  0.00    -0.002 A   
ATOM     24  C14 UNL     1       0.282  -1.192   3.850  1.00  0.00     0.012 A   
ATOM     25  C18 UNL     1       1.818  -2.881   3.003  1.00  0.00     0.045 A   
ATOM     26  C15 UNL     1      -0.219  -2.095   4.795  1.00  0.00     0.037 A   
ATOM     27  C17 UNL     1       1.295  -3.748   3.940  1.00  0.00     0.109 A   
ATOM     28  C16 UNL     1       0.309  -3.365   4.815  1.00  0.00     0.108 A   
ATOM     29  O2  UNL     1       1.667  -5.043   4.110  1.00  0.00    -0.316 OA  
ATOM     30  O3  UNL     1      -0.056  -4.368   5.655  1.00  0.00    -0.316 OA  
ATOM     31  C19 UNL     1       0.812  -5.432   5.211  1.00  0.00     0.337 C   
ENDBRANCH  22  23
ENDBRANCH  19  22
ENDBRANCH  18  19
BRANCH  18  32
ATOM     32  C20 UNL     1       1.226  -0.567  -1.914  1.00  0.00     0.043 C   
ATOM     33  C21 UNL     1       1.637   0.402  -3.050  1.00  0.00     0.010 C   
ATOM     34  C25 UNL     1       1.840  -1.960  -2.179  1.00  0.00     0.010 C   
ATOM     35  C22 UNL     1       1.307  -0.146  -4.437  1.00  0.00     0.001 C   
ATOM     36  C24 UNL     1       1.531  -2.488  -3.581  1.00  0.00     0.001 C   
ATOM     37  C23 UNL     1       1.951  -1.505  -4.662  1.00  0.00     0.000 C   
ENDBRANCH  18  32
ENDBRANCH   3  18
TORSDOF 9
