REMARK SMILES OC[C@@H](c1cccc(Cl)c1)n1cc([C@@H]([NH2+]Cc2ccc3c(c2)OCO3)C2CCCCC2)nn1
REMARK SMILES IDX 11 1 12 2 13 3 32 4 33 5 3 7 2 8 1 9 4 11 5 12 10 13 6 14
REMARK SMILES IDX 8 15 7 16 9 17 14 18 15 19 16 22 17 23 18 24 22 25 19 26
REMARK SMILES IDX 21 27 20 28 23 29 25 30 24 31 26 32 27 33 31 34 28 35 30 36
REMARK SMILES IDX 29 37
REMARK H PARENT 12 6 1 10 15 20 15 21
ROOT
ATOM     1   N1  UNL     1      -0.622   1.176  -2.127  1.00  0.00    -0.202 N   
ATOM     2   C9  UNL     1       0.020   0.047  -1.690  1.00  0.00     0.046 A   
ATOM     3   C10 UNL     1      -0.047   0.124  -0.319  1.00  0.00     0.127 A   
ATOM     4   N3  UNL     1      -0.697   1.277   0.033  1.00  0.00    -0.132 NA  
ATOM     5   N4  UNL     1      -1.070   1.895  -1.074  1.00  0.00    -0.075 NA  
ATOM     6   H9  UNL     1       0.453  -0.678  -2.365  1.00  0.00     0.083 HD  
ENDROOT
BRANCH   1   7
ATOM     7   C2  UNL     1      -0.837   1.681  -3.488  1.00  0.00     0.155 C   
BRANCH   7   8
ATOM     8   C1  UNL     1      -0.139   3.047  -3.689  1.00  0.00     0.185 C   
BRANCH   8   9
ATOM     9   O1  UNL     1       1.260   3.003  -3.387  1.00  0.00    -0.394 OA  
ATOM     10  H1  UNL     1       1.604   3.906  -3.521  1.00  0.00     0.210 HD  
ENDBRANCH   8   9
ENDBRANCH   7   8
BRANCH   7  11
ATOM     11  C3  UNL     1      -0.543   0.629  -4.557  1.00  0.00    -0.022 A   
ATOM     12  C4  UNL     1       0.696   0.536  -5.213  1.00  0.00     0.006 A   
ATOM     13  C8  UNL     1      -1.540  -0.311  -4.889  1.00  0.00     0.026 A   
ATOM     14  C5  UNL     1       0.929  -0.449  -6.178  1.00  0.00     0.002 A   
ATOM     15  C7  UNL     1      -1.300  -1.298  -5.849  1.00  0.00     0.041 A   
ATOM     16  C6  UNL     1      -0.070  -1.367  -6.497  1.00  0.00     0.020 A   
ATOM     17  CL1 UNL     1      -2.534  -2.433  -6.228  1.00  0.00    -0.084 Cl  
ENDBRANCH   7  11
ENDBRANCH   1   7
BRANCH   3  18
ATOM     18  C11 UNL     1       0.516  -0.755   0.748  1.00  0.00     0.117 C   
BRANCH  18  19
ATOM     19  N2  UNL     1       0.967   0.091   1.915  1.00  0.00     0.249 N   
ATOM     20  H11 UNL     1       0.212   0.770   2.094  1.00  0.00     0.199 HD  
ATOM     21  H12 UNL     1       1.067  -0.466   2.768  1.00  0.00     0.199 HD  
BRANCH  19  22
ATOM     22  C12 UNL     1       2.216   0.870   1.688  1.00  0.00     0.164 C   
BRANCH  22  23
ATOM     23  C13 UNL     1       2.519   1.729   2.884  1.00  0.00    -0.002 A   
ATOM     24  C14 UNL     1       3.361   1.251   3.916  1.00  0.00     0.012 A   
ATOM     25  C18 UNL     1       1.915   2.992   3.011  1.00  0.00     0.045 A   
ATOM     26  C15 UNL     1       3.615   2.028   5.053  1.00  0.00     0.037 A   
ATOM     27  C17 UNL     1       2.183   3.730   4.147  1.00  0.00     0.109 A   
ATOM     28  C16 UNL     1       3.012   3.264   5.136  1.00  0.00     0.108 A   
ATOM     29  O2  UNL     1       1.679   4.960   4.428  1.00  0.00    -0.316 OA  
ATOM     30  O3  UNL     1       3.144   4.145   6.162  1.00  0.00    -0.316 OA  
ATOM     31  C19 UNL     1       2.282   5.215   5.718  1.00  0.00     0.337 C   
ENDBRANCH  22  23
ENDBRANCH  19  22
ENDBRANCH  18  19
BRANCH  18  32
ATOM     32  C20 UNL     1      -0.466  -1.832   1.277  1.00  0.00     0.043 C   
ATOM     33  C21 UNL     1      -0.797  -2.882   0.197  1.00  0.00     0.010 C   
ATOM     34  C25 UNL     1      -1.766  -1.264   1.879  1.00  0.00     0.010 C   
ATOM     35  C22 UNL     1      -1.690  -3.991   0.749  1.00  0.00     0.001 C   
ATOM     36  C24 UNL     1      -2.663  -2.375   2.426  1.00  0.00     0.001 C   
ATOM     37  C23 UNL     1      -2.968  -3.430   1.367  1.00  0.00     0.000 C   
ENDBRANCH  18  32
ENDBRANCH   3  18
TORSDOF 9
