REMARK SMILES Fc1ccc(CCn2cc([C@@H]([NH2+]Cc3ccc4c(c3)OCO4)C3CCCC3)nn2)cn1
REMARK SMILES IDX 8 1 9 2 10 3 28 4 29 5 7 7 6 8 5 9 2 10 3 11 31 12 4 13
REMARK SMILES IDX 30 14 1 15 11 16 12 17 13 20 14 21 15 22 19 23 16 24 18 25
REMARK SMILES IDX 17 26 20 27 22 28 21 29 23 30 24 31 27 32 25 33 26 34
REMARK H PARENT 9 6 12 18 12 19
ROOT
ATOM     1   N1  UNL     1      -0.894  -0.956   3.075  1.00  0.00    -0.212 N   
ATOM     2   C7  UNL     1       0.237  -0.646   2.370  1.00  0.00     0.045 A   
ATOM     3   C8  UNL     1      -0.206   0.226   1.399  1.00  0.00     0.127 A   
ATOM     4   N3  UNL     1      -1.545   0.461   1.584  1.00  0.00    -0.132 NA  
ATOM     5   N4  UNL     1      -1.953  -0.268   2.611  1.00  0.00    -0.076 NA  
ATOM     6   H7  UNL     1       1.192  -1.112   2.570  1.00  0.00     0.083 HD  
ENDROOT
BRANCH   1   7
ATOM     7   C6  UNL     1      -1.071  -2.033   4.029  1.00  0.00     0.139 C   
BRANCH   7   8
ATOM     8   C5  UNL     1      -1.801  -3.248   3.434  1.00  0.00     0.058 C   
BRANCH   8   9
ATOM     9   C4  UNL     1      -1.143  -3.760   2.175  1.00  0.00    -0.028 A   
ATOM     10  C1  UNL     1       0.130  -4.404  -0.157  1.00  0.00     0.212 A   
ATOM     11  C2  UNL     1       0.590  -4.965   1.022  1.00  0.00     0.061 A   
ATOM     12  N5  UNL     1      -0.914  -3.550  -0.234  1.00  0.00    -0.228 NA  
ATOM     13  C3  UNL     1      -0.050  -4.626   2.212  1.00  0.00     0.010 A   
ATOM     14  C23 UNL     1      -1.552  -3.290   0.927  1.00  0.00     0.118 A   
ATOM     15  F1  UNL     1       0.782  -4.676  -1.295  1.00  0.00    -0.185 F   
ENDBRANCH   8   9
ENDBRANCH   7   8
ENDBRANCH   1   7
BRANCH   3  16
ATOM     16  C9  UNL     1       0.503   0.822   0.226  1.00  0.00     0.117 C   
BRANCH  16  17
ATOM     17  N2  UNL     1      -0.422   0.928  -0.955  1.00  0.00     0.249 N   
ATOM     18  H9  UNL     1      -1.294   1.363  -0.622  1.00  0.00     0.199 HD  
ATOM     19  H10 UNL     1      -0.047   1.546  -1.680  1.00  0.00     0.199 HD  
BRANCH  17  20
ATOM     20  C10 UNL     1      -0.802  -0.369  -1.589  1.00  0.00     0.164 C   
BRANCH  20  21
ATOM     21  C11 UNL     1      -1.633  -0.118  -2.817  1.00  0.00    -0.002 A   
ATOM     22  C12 UNL     1      -3.039   0.010  -2.710  1.00  0.00     0.012 A   
ATOM     23  C16 UNL     1      -1.014   0.052  -4.067  1.00  0.00     0.045 A   
ATOM     24  C13 UNL     1      -3.822   0.292  -3.835  1.00  0.00     0.037 A   
ATOM     25  C15 UNL     1      -1.816   0.331  -5.155  1.00  0.00     0.109 A   
ATOM     26  C14 UNL     1      -3.179   0.448  -5.043  1.00  0.00     0.108 A   
ATOM     27  O1  UNL     1      -1.380   0.525  -6.427  1.00  0.00    -0.316 OA  
ATOM     28  O2  UNL     1      -3.775   0.727  -6.231  1.00  0.00    -0.316 OA  
ATOM     29  C17 UNL     1      -2.633   0.746  -7.114  1.00  0.00     0.337 C   
ENDBRANCH  20  21
ENDBRANCH  17  20
ENDBRANCH  16  17
BRANCH  16  30
ATOM     30  C18 UNL     1       1.115   2.193   0.574  1.00  0.00     0.043 C   
ATOM     31  C19 UNL     1       2.080   2.751  -0.477  1.00  0.00     0.010 C   
ATOM     32  C22 UNL     1       0.133   3.353   0.756  1.00  0.00     0.010 C   
ATOM     33  C20 UNL     1       2.230   4.229  -0.119  1.00  0.00     0.001 C   
ATOM     34  C21 UNL     1       1.037   4.580   0.770  1.00  0.00     0.001 C   
ENDBRANCH  16  30
ENDBRANCH   3  16
TORSDOF 8
