REMARK SMILES OC[C@@H](c1ccc(Cl)cc1)n1cc([C@@H]([NH2+]Cc2ccc3c(c2)OCO3)C2CCCCC2)nn1
REMARK SMILES IDX 11 1 12 2 13 3 32 4 33 5 3 7 2 8 1 9 4 11 5 12 10 13 6 14
REMARK SMILES IDX 9 15 7 16 8 17 14 18 15 19 16 22 17 23 18 24 22 25 19 26
REMARK SMILES IDX 21 27 20 28 23 29 25 30 24 31 26 32 27 33 31 34 28 35 30 36
REMARK SMILES IDX 29 37
REMARK H PARENT 12 6 1 10 15 20 15 21
ROOT
ATOM     1   N1  UNL     1       0.496   0.267  -2.669  1.00  0.00    -0.202 N   
ATOM     2   C9  UNL     1      -0.364  -0.227  -1.722  1.00  0.00     0.046 A   
ATOM     3   C10 UNL     1       0.375  -1.184  -1.060  1.00  0.00     0.127 A   
ATOM     4   N3  UNL     1       1.635  -1.222  -1.597  1.00  0.00    -0.132 NA  
ATOM     5   N4  UNL     1       1.708  -0.310  -2.551  1.00  0.00    -0.075 NA  
ATOM     6   H9  UNL     1      -1.369   0.154  -1.609  1.00  0.00     0.083 HD  
ENDROOT
BRANCH   1   7
ATOM     7   C2  UNL     1       0.251   1.364  -3.610  1.00  0.00     0.155 C   
BRANCH   7   8
ATOM     8   C1  UNL     1       0.963   2.644  -3.135  1.00  0.00     0.185 C   
BRANCH   8   9
ATOM     9   O1  UNL     1       0.360   3.131  -1.929  1.00  0.00    -0.394 OA  
ATOM     10  H1  UNL     1       0.889   3.900  -1.641  1.00  0.00     0.210 HD  
ENDBRANCH   8   9
ENDBRANCH   7   8
BRANCH   7  11
ATOM     11  C3  UNL     1       0.576   0.937  -5.036  1.00  0.00    -0.023 A   
ATOM     12  C4  UNL     1      -0.426   0.344  -5.828  1.00  0.00     0.007 A   
ATOM     13  C8  UNL     1       1.861   1.084  -5.588  1.00  0.00     0.007 A   
ATOM     14  C5  UNL     1      -0.158  -0.070  -7.135  1.00  0.00     0.021 A   
ATOM     15  C7  UNL     1       2.127   0.673  -6.898  1.00  0.00     0.021 A   
ATOM     16  C6  UNL     1       1.118   0.101  -7.667  1.00  0.00     0.041 A   
ATOM     17  CL1 UNL     1       1.451  -0.410  -9.274  1.00  0.00    -0.084 Cl  
ENDBRANCH   7  11
ENDBRANCH   1   7
BRANCH   3  18
ATOM     18  C11 UNL     1       0.074  -2.024   0.145  1.00  0.00     0.117 C   
BRANCH  18  19
ATOM     19  N2  UNL     1       0.468  -1.283   1.403  1.00  0.00     0.249 N   
ATOM     20  H11 UNL     1      -0.150  -0.475   1.536  1.00  0.00     0.199 HD  
ATOM     21  H12 UNL     1       0.344  -1.892   2.218  1.00  0.00     0.199 HD  
BRANCH  19  22
ATOM     22  C12 UNL     1       1.886  -0.801   1.441  1.00  0.00     0.164 C   
BRANCH  22  23
ATOM     23  C13 UNL     1       2.258  -0.358   2.829  1.00  0.00    -0.002 A   
ATOM     24  C14 UNL     1       2.994  -1.220   3.679  1.00  0.00     0.012 A   
ATOM     25  C18 UNL     1       1.857   0.903   3.302  1.00  0.00     0.045 A   
ATOM     26  C15 UNL     1       3.334  -0.828   4.979  1.00  0.00     0.037 A   
ATOM     27  C17 UNL     1       2.212   1.258   4.588  1.00  0.00     0.109 A   
ATOM     28  C16 UNL     1       2.925   0.417   5.406  1.00  0.00     0.108 A   
ATOM     29  O2  UNL     1       1.912   2.438   5.193  1.00  0.00    -0.316 OA  
ATOM     30  O3  UNL     1       3.171   0.962   6.627  1.00  0.00    -0.316 OA  
ATOM     31  C19 UNL     1       2.572   2.265   6.469  1.00  0.00     0.337 C   
ENDBRANCH  22  23
ENDBRANCH  19  22
ENDBRANCH  18  19
BRANCH  18  32
ATOM     32  C20 UNL     1      -1.415  -2.475   0.241  1.00  0.00     0.043 C   
ATOM     33  C21 UNL     1      -1.742  -3.207   1.562  1.00  0.00     0.010 C   
ATOM     34  C25 UNL     1      -1.780  -3.383  -0.958  1.00  0.00     0.010 C   
ATOM     35  C22 UNL     1      -3.177  -3.733   1.606  1.00  0.00     0.001 C   
ATOM     36  C24 UNL     1      -3.219  -3.887  -0.895  1.00  0.00     0.001 C   
ATOM     37  C23 UNL     1      -3.491  -4.621   0.411  1.00  0.00     0.000 C   
ENDBRANCH  18  32
ENDBRANCH   3  18
TORSDOF 9
