REMARK SMILES CC(C)C[C@H]([NH2+]Cc1ccc2c(c1)OCO2)c1cn(Cc2cn[nH]c2)nn1
REMARK SMILES IDX 17 1 18 2 19 3 26 4 27 5 5 7 4 8 2 9 1 10 3 11 6 12 7 15
REMARK SMILES IDX 8 16 9 17 13 18 10 19 12 20 11 21 14 22 16 23 15 24 20 25
REMARK SMILES IDX 21 26 22 27 25 28 23 29 24 30
REMARK H PARENT 18 6 6 13 6 14 24 31
ROOT
ATOM     1   C14 UNL     1       0.967  -0.939   0.274  1.00  0.00     0.127 A   
ATOM     2   C15 UNL     1       2.177  -1.406   0.740  1.00  0.00     0.046 A   
ATOM     3   N2  UNL     1       1.888  -2.646   1.248  1.00  0.00    -0.208 N   
ATOM     4   N5  UNL     1       0.574  -2.922   1.097  1.00  0.00    -0.076 NA  
ATOM     5   N6  UNL     1       0.002  -1.884   0.509  1.00  0.00    -0.132 NA  
ATOM     6   H20 UNL     1       3.178  -0.989   0.754  1.00  0.00     0.083 HD  
ENDROOT
BRANCH   1   7
ATOM     7   C5  UNL     1       0.597   0.348  -0.399  1.00  0.00     0.114 C   
BRANCH   7   8
ATOM     8   C4  UNL     1       0.701   1.542   0.571  1.00  0.00     0.064 C   
BRANCH   8   9
ATOM     9   C2  UNL     1       0.494   2.942  -0.051  1.00  0.00    -0.012 C   
ATOM     10  C1  UNL     1       1.496   3.239  -1.171  1.00  0.00     0.007 C   
ATOM     11  C3  UNL     1       0.609   4.013   1.042  1.00  0.00     0.007 C   
ENDBRANCH   8   9
ENDBRANCH   7   8
BRANCH   7  12
ATOM     12  N1  UNL     1      -0.810   0.257  -0.928  1.00  0.00     0.249 N   
ATOM     13  H11 UNL     1      -1.322  -0.369  -0.284  1.00  0.00     0.199 HD  
ATOM     14  H12 UNL     1      -1.308   1.150  -0.895  1.00  0.00     0.199 HD  
BRANCH  12  15
ATOM     15  C6  UNL     1      -0.934  -0.331  -2.290  1.00  0.00     0.164 C   
BRANCH  15  16
ATOM     16  C7  UNL     1      -2.381  -0.536  -2.643  1.00  0.00    -0.002 A   
ATOM     17  C8  UNL     1      -2.994  -1.793  -2.416  1.00  0.00     0.012 A   
ATOM     18  C12 UNL     1      -3.149   0.533  -3.139  1.00  0.00     0.045 A   
ATOM     19  C9  UNL     1      -4.351  -1.989  -2.693  1.00  0.00     0.037 A   
ATOM     20  C11 UNL     1      -4.486   0.307  -3.391  1.00  0.00     0.109 A   
ATOM     21  C10 UNL     1      -5.070  -0.918  -3.176  1.00  0.00     0.108 A   
ATOM     22  O1  UNL     1      -5.367   1.228  -3.866  1.00  0.00    -0.316 OA  
ATOM     23  O2  UNL     1      -6.392  -0.925  -3.497  1.00  0.00    -0.316 OA  
ATOM     24  C13 UNL     1      -6.591   0.453  -3.885  1.00  0.00     0.337 C   
ENDBRANCH  15  16
ENDBRANCH  12  15
ENDBRANCH   7  12
ENDBRANCH   1   7
BRANCH   3  25
ATOM     25  C16 UNL     1       2.752  -3.605   1.926  1.00  0.00     0.172 C   
BRANCH  25  26
ATOM     26  C17 UNL     1       4.178  -3.468   1.525  1.00  0.00     0.007 A   
ATOM     27  C18 UNL     1       4.767  -3.826   0.290  1.00  0.00     0.137 A   
ATOM     28  C19 UNL     1       5.233  -2.963   2.262  1.00  0.00     0.099 A   
ATOM     29  N3  UNL     1       6.064  -3.523   0.238  1.00  0.00    -0.193 NA  
ATOM     30  N4  UNL     1       6.336  -3.035   1.459  1.00  0.00    -0.246 N   
ATOM     31  H24 UNL     1       7.296  -2.767   1.668  1.00  0.00     0.175 HD  
ENDBRANCH  25  26
ENDBRANCH   3  25
TORSDOF 8
