REMARK SMILES Cc1c(F)cccc1CCn1cc([C@@H]([NH2+]Cc2ccc3c(c2)OCO3)C(C)(C)C)nn1
REMARK SMILES IDX 11 1 12 2 13 3 30 4 31 5 10 7 9 8 8 9 2 10 3 11 5 12 7 13
REMARK SMILES IDX 6 14 1 15 4 16 14 17 15 18 16 21 17 22 18 23 22 24 19 25
REMARK SMILES IDX 21 26 20 27 23 28 25 29 24 30 26 31 27 32 28 33 29 34
REMARK H PARENT 12 6 15 19 15 20
ROOT
ATOM     1   N1  UNL     1       0.658  -2.124  -1.914  1.00  0.00    -0.212 N   
ATOM     2   C10 UNL     1       1.575  -1.438  -1.167  1.00  0.00     0.045 A   
ATOM     3   C11 UNL     1       0.989  -1.352   0.076  1.00  0.00     0.127 A   
ATOM     4   N3  UNL     1      -0.222  -1.996   0.048  1.00  0.00    -0.132 NA  
ATOM     5   N4  UNL     1      -0.405  -2.476  -1.171  1.00  0.00    -0.076 NA  
ATOM     6   H11 UNL     1       2.491  -1.047  -1.588  1.00  0.00     0.083 HD  
ENDROOT
BRANCH   1   7
ATOM     7   C9  UNL     1       0.683  -2.378  -3.341  1.00  0.00     0.139 C   
BRANCH   7   8
ATOM     8   C8  UNL     1      -0.165  -1.380  -4.141  1.00  0.00     0.057 C   
BRANCH   8   9
ATOM     9   C7  UNL     1       0.262   0.062  -3.931  1.00  0.00    -0.041 A   
ATOM     10  C2  UNL     1      -0.500   0.976  -3.169  1.00  0.00    -0.012 A   
ATOM     11  C3  UNL     1       0.026   2.253  -2.931  1.00  0.00     0.126 A   
ATOM     12  C4  UNL     1       1.248   2.654  -3.460  1.00  0.00     0.039 A   
ATOM     13  C6  UNL     1       1.491   0.483  -4.475  1.00  0.00     0.004 A   
ATOM     14  C5  UNL     1       1.977   1.770  -4.247  1.00  0.00     0.003 A   
ATOM     15  C1  UNL     1      -1.860   0.635  -2.625  1.00  0.00     0.048 C   
ATOM     16  F1  UNL     1      -0.640   3.113  -2.145  1.00  0.00    -0.207 F   
ENDBRANCH   8   9
ENDBRANCH   7   8
ENDBRANCH   1   7
BRANCH   3  17
ATOM     17  C12 UNL     1       1.401  -0.605   1.309  1.00  0.00     0.120 C   
BRANCH  17  18
ATOM     18  N2  UNL     1       0.180   0.072   1.885  1.00  0.00     0.250 N   
ATOM     19  H13 UNL     1      -0.575  -0.631   1.875  1.00  0.00     0.199 HD  
ATOM     20  H14 UNL     1       0.302   0.343   2.864  1.00  0.00     0.199 HD  
BRANCH  18  21
ATOM     21  C13 UNL     1      -0.311   1.254   1.120  1.00  0.00     0.164 C   
BRANCH  21  22
ATOM     22  C14 UNL     1      -1.597   1.761   1.707  1.00  0.00    -0.002 A   
ATOM     23  C15 UNL     1      -1.594   2.832   2.632  1.00  0.00     0.012 A   
ATOM     24  C19 UNL     1      -2.812   1.137   1.373  1.00  0.00     0.045 A   
ATOM     25  C16 UNL     1      -2.785   3.283   3.211  1.00  0.00     0.037 A   
ATOM     26  C18 UNL     1      -3.967   1.606   1.962  1.00  0.00     0.109 A   
ATOM     27  C17 UNL     1      -3.955   2.649   2.855  1.00  0.00     0.108 A   
ATOM     28  O1  UNL     1      -5.218   1.119   1.750  1.00  0.00    -0.316 OA  
ATOM     29  O2  UNL     1      -5.196   2.951   3.317  1.00  0.00    -0.316 OA  
ATOM     30  C20 UNL     1      -6.000   1.992   2.596  1.00  0.00     0.337 C   
ENDBRANCH  21  22
ENDBRANCH  18  21
ENDBRANCH  17  18
BRANCH  17  31
ATOM     31  C21 UNL     1       2.107  -1.488   2.394  1.00  0.00     0.010 C   
ATOM     32  C22 UNL     1       2.634  -0.601   3.546  1.00  0.00     0.017 C   
ATOM     33  C23 UNL     1       1.174  -2.557   2.996  1.00  0.00     0.017 C   
ATOM     34  C24 UNL     1       3.333  -2.203   1.780  1.00  0.00     0.017 C   
ENDBRANCH  17  31
ENDBRANCH   3  17
TORSDOF 8
