REMARK SMILES COc1cc(CCn2cc([C@@H]([NH2+]Cc3ccc4c(c3)OCO4)C(C)C)nn2)ccc1C
REMARK SMILES IDX 8 1 9 2 10 3 26 4 27 5 7 7 6 8 5 9 3 10 4 11 30 12 29 13
REMARK SMILES IDX 28 14 31 15 2 16 1 17 11 18 12 19 13 22 14 23 15 24 19 25
REMARK SMILES IDX 16 26 18 27 17 28 20 29 22 30 21 31 23 32 24 33 25 34
REMARK H PARENT 9 6 12 20 12 21
ROOT
ATOM     1   N1  UNL     1      -3.174   2.486  -1.180  1.00  0.00    -0.212 N   
ATOM     2   C7  UNL     1      -1.832   2.638  -1.399  1.00  0.00     0.045 A   
ATOM     3   C8  UNL     1      -1.458   1.447  -1.981  1.00  0.00     0.127 A   
ATOM     4   N3  UNL     1      -2.573   0.674  -2.181  1.00  0.00    -0.132 NA  
ATOM     5   N4  UNL     1      -3.622   1.335  -1.715  1.00  0.00    -0.076 NA  
ATOM     6   H9  UNL     1      -1.278   3.489  -1.029  1.00  0.00     0.083 HD  
ENDROOT
BRANCH   1   7
ATOM     7   C6  UNL     1      -3.997   3.244  -0.255  1.00  0.00     0.139 C   
BRANCH   7   8
ATOM     8   C5  UNL     1      -4.207   2.521   1.088  1.00  0.00     0.057 C   
BRANCH   8   9
ATOM     9   C4  UNL     1      -2.909   2.033   1.696  1.00  0.00    -0.044 A   
ATOM     10  C2  UNL     1      -1.183   0.328   1.797  1.00  0.00     0.078 A   
ATOM     11  C3  UNL     1      -2.458   0.737   1.407  1.00  0.00     0.037 A   
ATOM     12  C23 UNL     1      -0.342   1.183   2.514  1.00  0.00    -0.021 A   
ATOM     13  C22 UNL     1      -0.815   2.462   2.843  1.00  0.00     0.006 A   
ATOM     14  C21 UNL     1      -2.084   2.887   2.433  1.00  0.00     0.004 A   
ATOM     15  C24 UNL     1       1.040   0.760   2.917  1.00  0.00     0.047 C   
BRANCH  10  16
ATOM     16  O1  UNL     1      -0.711  -0.886   1.363  1.00  0.00    -0.349 OA  
ATOM     17  C1  UNL     1      -1.331  -1.938   2.116  1.00  0.00     0.203 C   
ENDBRANCH  10  16
ENDBRANCH   8   9
ENDBRANCH   7   8
ENDBRANCH   1   7
BRANCH   3  18
ATOM     18  C9  UNL     1      -0.098   0.899  -2.272  1.00  0.00     0.117 C   
BRANCH  18  19
ATOM     19  N2  UNL     1       0.012  -0.472  -1.654  1.00  0.00     0.249 N   
ATOM     20  H11 UNL     1      -0.235  -0.390  -0.651  1.00  0.00     0.199 HD  
ATOM     21  H12 UNL     1      -0.744  -1.060  -2.030  1.00  0.00     0.199 HD  
BRANCH  19  22
ATOM     22  C10 UNL     1       1.323  -1.156  -1.742  1.00  0.00     0.164 C   
BRANCH  22  23
ATOM     23  C11 UNL     1       1.357  -2.422  -0.933  1.00  0.00    -0.002 A   
ATOM     24  C12 UNL     1       0.685  -3.582  -1.389  1.00  0.00     0.012 A   
ATOM     25  C16 UNL     1       2.046  -2.459   0.291  1.00  0.00     0.045 A   
ATOM     26  C13 UNL     1       0.703  -4.764  -0.641  1.00  0.00     0.037 A   
ATOM     27  C15 UNL     1       2.046  -3.641   1.003  1.00  0.00     0.109 A   
ATOM     28  C14 UNL     1       1.393  -4.761   0.551  1.00  0.00     0.108 A   
ATOM     29  O2  UNL     1       2.656  -3.843   2.200  1.00  0.00    -0.316 OA  
ATOM     30  O3  UNL     1       1.513  -5.811   1.404  1.00  0.00    -0.316 OA  
ATOM     31  C17 UNL     1       2.342  -5.234   2.436  1.00  0.00     0.337 C   
ENDBRANCH  22  23
ENDBRANCH  19  22
ENDBRANCH  18  19
BRANCH  18  32
ATOM     32  C18 UNL     1       0.258   0.881  -3.782  1.00  0.00     0.037 C   
ATOM     33  C19 UNL     1      -0.614  -0.047  -4.634  1.00  0.00     0.014 C   
ATOM     34  C20 UNL     1       0.242   2.295  -4.379  1.00  0.00     0.014 C   
ENDBRANCH  18  32
ENDBRANCH   3  18
TORSDOF 9
