REMARK SMILES COc1ccc(C)cc1-n1cc([C@@H]([NH2+]Cc2ccc3c(c2)OCO3)C(C)C)nn1
REMARK SMILES IDX 10 1 11 2 12 3 28 4 29 5 9 6 3 7 4 8 5 9 8 10 6 11 7 12 2 13
REMARK SMILES IDX 1 14 13 15 14 16 15 19 16 20 17 21 21 22 18 23 20 24 19 25
REMARK SMILES IDX 22 26 24 27 23 28 25 29 26 30 27 31
REMARK H PARENT 14 17 14 18
ROOT
ATOM     1   N1  UNL     1      -1.200   0.910  -0.426  1.00  0.00    -0.178 N   
ATOM     2   C9  UNL     1      -0.230   1.418   0.420  1.00  0.00     0.135 A   
ATOM     3   C10 UNL     1       0.877   0.621   0.240  1.00  0.00     0.127 A   
ATOM     4   N3  UNL     1       0.585  -0.347  -0.674  1.00  0.00    -0.131 NA  
ATOM     5   N4  UNL     1      -0.666  -0.177  -1.061  1.00  0.00    -0.071 NA  
ENDROOT
BRANCH   1   6
ATOM     6   C8  UNL     1      -2.541   1.323  -0.682  1.00  0.00     0.088 A   
ATOM     7   C2  UNL     1      -3.147   2.429  -0.053  1.00  0.00     0.098 A   
ATOM     8   C3  UNL     1      -4.473   2.750  -0.385  1.00  0.00     0.036 A   
ATOM     9   C4  UNL     1      -5.191   1.997  -1.317  1.00  0.00     0.006 A   
ATOM     10  C7  UNL     1      -3.281   0.573  -1.624  1.00  0.00     0.032 A   
ATOM     11  C5  UNL     1      -4.607   0.895  -1.936  1.00  0.00    -0.049 A   
ATOM     12  C6  UNL     1      -5.363   0.105  -2.964  1.00  0.00     0.044 C   
BRANCH   7  13
ATOM     13  O1  UNL     1      -2.422   3.147   0.859  1.00  0.00    -0.347 OA  
ATOM     14  C1  UNL     1      -3.027   4.295   1.450  1.00  0.00     0.203 C   
ENDBRANCH   7  13
ENDBRANCH   1   6
BRANCH   3  15
ATOM     15  C11 UNL     1       2.231   0.659   0.875  1.00  0.00     0.117 C   
BRANCH  15  16
ATOM     16  N2  UNL     1       2.894  -0.689   0.785  1.00  0.00     0.249 N   
ATOM     17  H12 UNL     1       3.911  -0.628   0.893  1.00  0.00     0.199 HD  
ATOM     18  H13 UNL     1       2.727  -1.039  -0.171  1.00  0.00     0.199 HD  
BRANCH  16  19
ATOM     19  C12 UNL     1       2.371  -1.720   1.724  1.00  0.00     0.164 C   
BRANCH  19  20
ATOM     20  C13 UNL     1       3.067  -3.033   1.499  1.00  0.00    -0.002 A   
ATOM     21  C14 UNL     1       4.199  -3.387   2.272  1.00  0.00     0.012 A   
ATOM     22  C18 UNL     1       2.628  -3.893   0.478  1.00  0.00     0.045 A   
ATOM     23  C15 UNL     1       4.879  -4.588   2.039  1.00  0.00     0.037 A   
ATOM     24  C17 UNL     1       3.322  -5.067   0.274  1.00  0.00     0.109 A   
ATOM     25  C16 UNL     1       4.415  -5.405   1.032  1.00  0.00     0.108 A   
ATOM     26  O2  UNL     1       3.033  -6.004  -0.667  1.00  0.00    -0.316 OA  
ATOM     27  O3  UNL     1       4.951  -6.599   0.667  1.00  0.00    -0.316 OA  
ATOM     28  C19 UNL     1       4.058  -6.987  -0.399  1.00  0.00     0.337 C   
ENDBRANCH  19  20
ENDBRANCH  16  19
ENDBRANCH  15  16
BRANCH  15  29
ATOM     29  C20 UNL     1       3.140   1.749   0.248  1.00  0.00     0.037 C   
ATOM     30  C21 UNL     1       3.552   1.456  -1.200  1.00  0.00     0.014 C   
ATOM     31  C22 UNL     1       4.389   2.006   1.100  1.00  0.00     0.014 C   
ENDBRANCH  15  29
ENDBRANCH   3  15
TORSDOF 7
