REMARK SMILES c1ccc(OCCCn2cc([C@@H]([NH2+]Cc3ccc4c(c3)OCO4)C3CCCCC3)nn2)cc1
REMARK SMILES IDX 9 1 10 2 11 3 30 4 31 5 8 7 7 8 6 9 5 10 4 11 1 12 2 13
REMARK SMILES IDX 33 14 3 15 32 16 12 17 13 18 14 21 15 22 16 23 20 24 17 25
REMARK SMILES IDX 19 26 18 27 21 28 23 29 22 30 24 31 25 32 29 33 26 34 28 35
REMARK SMILES IDX 27 36
REMARK H PARENT 10 6 13 19 13 20
ROOT
ATOM     1   N1  UNL     1       1.263   0.407   1.882  1.00  0.00    -0.212 N   
ATOM     2   C8  UNL     1       0.338   0.469   0.879  1.00  0.00     0.045 A   
ATOM     3   C9  UNL     1       1.022   1.047  -0.164  1.00  0.00     0.127 A   
ATOM     4   N3  UNL     1       2.293   1.362   0.250  1.00  0.00    -0.132 NA  
ATOM     5   N4  UNL     1       2.426   0.970   1.505  1.00  0.00    -0.076 NA  
ATOM     6   H10 UNL     1      -0.662   0.071   0.985  1.00  0.00     0.083 HD  
ENDROOT
BRANCH   1   7
ATOM     7   C7  UNL     1       1.135  -0.249   3.167  1.00  0.00     0.136 C   
BRANCH   7   8
ATOM     8   C6  UNL     1       1.940  -1.550   3.271  1.00  0.00     0.050 C   
BRANCH   8   9
ATOM     9   C5  UNL     1       1.685  -2.527   2.121  1.00  0.00     0.169 C   
BRANCH   9  10
ATOM     10  O1  UNL     1       0.275  -2.660   1.939  1.00  0.00    -0.346 OA  
BRANCH  10  11
ATOM     11  C4  UNL     1      -0.146  -3.273   0.790  1.00  0.00     0.075 A   
ATOM     12  C1  UNL     1      -1.274  -4.450  -1.490  1.00  0.00     0.000 A   
ATOM     13  C2  UNL     1       0.100  -4.529  -1.269  1.00  0.00     0.003 A   
ATOM     14  C26 UNL     1      -2.088  -3.789  -0.572  1.00  0.00     0.003 A   
ATOM     15  C3  UNL     1       0.664  -3.945  -0.129  1.00  0.00     0.033 A   
ATOM     16  C25 UNL     1      -1.523  -3.205   0.565  1.00  0.00     0.033 A   
ENDBRANCH  10  11
ENDBRANCH   9  10
ENDBRANCH   8   9
ENDBRANCH   7   8
ENDBRANCH   1   7
BRANCH   3  17
ATOM     17  C10 UNL     1       0.604   1.374  -1.561  1.00  0.00     0.117 C   
BRANCH  17  18
ATOM     18  N2  UNL     1       1.389   2.575  -2.048  1.00  0.00     0.249 N   
ATOM     19  H12 UNL     1       2.229   2.615  -1.448  1.00  0.00     0.199 HD  
ATOM     20  H13 UNL     1       1.734   2.430  -3.000  1.00  0.00     0.199 HD  
BRANCH  18  21
ATOM     21  C11 UNL     1       0.698   3.896  -1.969  1.00  0.00     0.164 C   
BRANCH  21  22
ATOM     22  C12 UNL     1       0.191   4.244  -0.596  1.00  0.00    -0.002 A   
ATOM     23  C13 UNL     1       1.094   4.604   0.434  1.00  0.00     0.012 A   
ATOM     24  C17 UNL     1      -1.184   4.155  -0.311  1.00  0.00     0.045 A   
ATOM     25  C14 UNL     1       0.640   4.841   1.734  1.00  0.00     0.037 A   
ATOM     26  C16 UNL     1      -1.597   4.396   0.983  1.00  0.00     0.109 A   
ATOM     27  C15 UNL     1      -0.711   4.725   1.978  1.00  0.00     0.108 A   
ATOM     28  O2  UNL     1      -2.881   4.325   1.428  1.00  0.00    -0.316 OA  
ATOM     29  O3  UNL     1      -1.326   4.902   3.177  1.00  0.00    -0.316 OA  
ATOM     30  C18 UNL     1      -2.708   4.687   2.816  1.00  0.00     0.337 C   
ENDBRANCH  21  22
ENDBRANCH  18  21
ENDBRANCH  17  18
BRANCH  17  31
ATOM     31  C19 UNL     1       0.784   0.173  -2.526  1.00  0.00     0.043 C   
ATOM     32  C20 UNL     1       0.085   0.435  -3.881  1.00  0.00     0.010 C   
ATOM     33  C24 UNL     1       2.239  -0.272  -2.739  1.00  0.00     0.010 C   
ATOM     34  C21 UNL     1       0.659  -0.383  -5.041  1.00  0.00     0.001 C   
ATOM     35  C23 UNL     1       2.329  -1.562  -3.566  1.00  0.00     0.001 C   
ATOM     36  C22 UNL     1       1.194  -1.727  -4.574  1.00  0.00     0.000 C   
ENDBRANCH  17  31
ENDBRANCH   3  17
TORSDOF 10
