REMARK SMILES COc1ccc(Cn2cc([C@@H]([NH2+]Cc3ccc4c(c3)OCO4)C(C)C)nn2)c(C)c1
REMARK SMILES IDX 8 1 9 2 10 3 26 4 27 5 7 7 6 8 3 9 4 10 30 11 5 12 28 13
REMARK SMILES IDX 29 14 2 15 1 16 11 17 12 18 13 21 14 22 15 23 19 24 16 25
REMARK SMILES IDX 18 26 17 27 20 28 22 29 21 30 23 31 24 32 25 33
REMARK H PARENT 9 6 12 19 12 20
ROOT
ATOM     1   N1  UNL     1      -1.454   0.626   2.260  1.00  0.00    -0.208 N   
ATOM     2   C7  UNL     1      -0.237   1.121   1.872  1.00  0.00     0.046 A   
ATOM     3   C8  UNL     1       0.403   0.036   1.316  1.00  0.00     0.127 A   
ATOM     4   N3  UNL     1      -0.404  -1.068   1.430  1.00  0.00    -0.132 NA  
ATOM     5   N4  UNL     1      -1.523  -0.700   2.032  1.00  0.00    -0.076 NA  
ATOM     6   H8  UNL     1       0.026   2.163   1.987  1.00  0.00     0.083 HD  
ENDROOT
BRANCH   1   7
ATOM     7   C6  UNL     1      -2.572   1.331   2.868  1.00  0.00     0.169 C   
BRANCH   7   8
ATOM     8   C5  UNL     1      -2.998   2.528   2.047  1.00  0.00    -0.025 A   
ATOM     9   C2  UNL     1      -3.692   4.837   0.574  1.00  0.00     0.075 A   
ATOM     10  C3  UNL     1      -3.064   4.961   1.809  1.00  0.00     0.034 A   
ATOM     11  C23 UNL     1      -3.977   3.561   0.081  1.00  0.00     0.037 A   
ATOM     12  C4  UNL     1      -2.719   3.818   2.537  1.00  0.00     0.008 A   
ATOM     13  C21 UNL     1      -3.654   2.400   0.805  1.00  0.00    -0.044 A   
ATOM     14  C22 UNL     1      -3.994   1.063   0.201  1.00  0.00     0.045 C   
BRANCH   9  15
ATOM     15  O1  UNL     1      -4.070   5.863  -0.245  1.00  0.00    -0.349 OA  
ATOM     16  C1  UNL     1      -3.925   7.183   0.265  1.00  0.00     0.203 C   
ENDBRANCH   9  15
ENDBRANCH   7   8
ENDBRANCH   1   7
BRANCH   3  17
ATOM     17  C9  UNL     1       1.743  -0.093   0.661  1.00  0.00     0.117 C   
BRANCH  17  18
ATOM     18  N2  UNL     1       2.151  -1.540   0.578  1.00  0.00     0.249 N   
ATOM     19  H10 UNL     1       2.844  -1.709  -0.155  1.00  0.00     0.199 HD  
ATOM     20  H11 UNL     1       1.307  -2.066   0.303  1.00  0.00     0.199 HD  
BRANCH  18  21
ATOM     21  C10 UNL     1       2.638  -2.139   1.852  1.00  0.00     0.164 C   
BRANCH  21  22
ATOM     22  C11 UNL     1       2.918  -3.603   1.666  1.00  0.00    -0.002 A   
ATOM     23  C12 UNL     1       4.224  -4.053   1.363  1.00  0.00     0.012 A   
ATOM     24  C16 UNL     1       1.864  -4.532   1.738  1.00  0.00     0.045 A   
ATOM     25  C13 UNL     1       4.483  -5.411   1.143  1.00  0.00     0.037 A   
ATOM     26  C15 UNL     1       2.153  -5.862   1.513  1.00  0.00     0.109 A   
ATOM     27  C14 UNL     1       3.425  -6.289   1.224  1.00  0.00     0.108 A   
ATOM     28  O2  UNL     1       1.256  -6.881   1.540  1.00  0.00    -0.316 OA  
ATOM     29  O3  UNL     1       3.490  -7.633   1.036  1.00  0.00    -0.316 OA  
ATOM     30  C17 UNL     1       2.115  -8.010   1.260  1.00  0.00     0.337 C   
ENDBRANCH  21  22
ENDBRANCH  18  21
ENDBRANCH  17  18
BRANCH  17  31
ATOM     31  C18 UNL     1       1.765   0.551  -0.751  1.00  0.00     0.037 C   
ATOM     32  C19 UNL     1       3.194   0.697  -1.287  1.00  0.00     0.014 C   
ATOM     33  C20 UNL     1       0.896  -0.182  -1.780  1.00  0.00     0.014 C   
ENDBRANCH  17  31
ENDBRANCH   3  17
TORSDOF 8
