REMARK SMILES CC(C)C[C@H]([NH2+]Cc1ccc2c(c1)OCO2)c1cn(Cc2cn(C)nc2Cl)nn1
REMARK SMILES IDX 17 1 18 2 19 3 28 4 29 5 5 7 4 8 2 9 1 10 3 11 6 12 7 15
REMARK SMILES IDX 8 16 9 17 13 18 10 19 12 20 11 21 14 22 16 23 15 24 20 25
REMARK SMILES IDX 21 26 22 27 26 28 23 29 25 30 27 31 24 32
REMARK H PARENT 18 6 6 13 6 14
ROOT
ATOM     1   C14 UNL     1      -0.700  -1.563  -1.406  1.00  0.00     0.127 A   
ATOM     2   C15 UNL     1       0.025  -2.381  -0.570  1.00  0.00     0.046 A   
ATOM     3   N2  UNL     1       0.557  -3.328  -1.404  1.00  0.00    -0.208 N   
ATOM     4   N5  UNL     1       0.136  -3.132  -2.670  1.00  0.00    -0.076 NA  
ATOM     5   N6  UNL     1      -0.637  -2.058  -2.682  1.00  0.00    -0.132 NA  
ATOM     6   H20 UNL     1       0.242  -2.349   0.490  1.00  0.00     0.083 HD  
ENDROOT
BRANCH   1   7
ATOM     7   C5  UNL     1      -1.419  -0.281  -1.149  1.00  0.00     0.114 C   
BRANCH   7   8
ATOM     8   C4  UNL     1      -2.931  -0.476  -0.920  1.00  0.00     0.064 C   
BRANCH   8   9
ATOM     9   C2  UNL     1      -3.313  -1.339   0.302  1.00  0.00    -0.012 C   
ATOM     10  C1  UNL     1      -2.756  -0.782   1.612  1.00  0.00     0.007 C   
ATOM     11  C3  UNL     1      -4.839  -1.452   0.399  1.00  0.00     0.007 C   
ENDBRANCH   8   9
ENDBRANCH   7   8
BRANCH   7  12
ATOM     12  N1  UNL     1      -1.272   0.634  -2.349  1.00  0.00     0.249 N   
ATOM     13  H11 UNL     1      -1.936   1.413  -2.289  1.00  0.00     0.199 HD  
ATOM     14  H12 UNL     1      -1.533   0.070  -3.172  1.00  0.00     0.199 HD  
BRANCH  12  15
ATOM     15  C6  UNL     1       0.098   1.175  -2.600  1.00  0.00     0.164 C   
BRANCH  15  16
ATOM     16  C7  UNL     1       0.521   2.185  -1.571  1.00  0.00    -0.002 A   
ATOM     17  C8  UNL     1       1.534   1.870  -0.634  1.00  0.00     0.012 A   
ATOM     18  C12 UNL     1      -0.095   3.448  -1.523  1.00  0.00     0.045 A   
ATOM     19  C9  UNL     1       1.927   2.794   0.340  1.00  0.00     0.037 A   
ATOM     20  C11 UNL     1       0.311   4.335  -0.547  1.00  0.00     0.109 A   
ATOM     21  C10 UNL     1       1.295   4.018   0.357  1.00  0.00     0.108 A   
ATOM     22  O1  UNL     1      -0.188   5.584  -0.356  1.00  0.00    -0.316 OA  
ATOM     23  O2  UNL     1       1.547   5.033   1.225  1.00  0.00    -0.316 OA  
ATOM     24  C13 UNL     1       0.607   6.031   0.764  1.00  0.00     0.337 C   
ENDBRANCH  15  16
ENDBRANCH  12  15
ENDBRANCH   7  12
ENDBRANCH   1   7
BRANCH   3  25
ATOM     25  C16 UNL     1       1.476  -4.421  -1.111  1.00  0.00     0.174 C   
BRANCH  25  26
ATOM     26  C17 UNL     1       2.418  -4.092  -0.008  1.00  0.00     0.026 A   
ATOM     27  C18 UNL     1       2.567  -4.737   1.209  1.00  0.00     0.104 A   
ATOM     28  C20 UNL     1       3.378  -3.052   0.042  1.00  0.00     0.153 A   
ATOM     29  N3  UNL     1       3.555  -4.070   1.880  1.00  0.00    -0.234 N   
ATOM     30  N4  UNL     1       4.032  -3.011   1.203  1.00  0.00    -0.170 NA  
ATOM     31  CL1 UNL     1       3.687  -1.895  -1.159  1.00  0.00    -0.060 Cl  
ATOM     32  C19 UNL     1       4.088  -4.382   3.187  1.00  0.00     0.159 C   
ENDBRANCH  25  26
ENDBRANCH   3  25
TORSDOF 8
