REMARK SMILES NC(=[NH2+])NCCC[C@@H](C(=O)[O-])n1cc([C@@H]([NH2+]Cc2ccc3c(c2)OCO3)C2CCCCC2)nn1
REMARK SMILES IDX 7 1 6 2 5 3 4 4 2 5 1 6 3 10 8 13 9 14 11 15 10 16 12 17
REMARK SMILES IDX 13 18 34 19 14 20 33 21 15 23 16 24 17 27 18 28 19 29 23 30
REMARK SMILES IDX 20 31 22 32 21 33 24 34 26 35 25 36 27 37 28 38 32 39 29 40
REMARK SMILES IDX 31 41 30 42
REMARK H PARENT 1 7 1 8 4 9 3 11 3 12 13 22 16 25 16 26
ROOT
ATOM     1   C4  UNL     1       1.508  -1.300  -4.177  1.00  0.00     0.034 C   
ENDROOT
BRANCH   1   2
ATOM     2   C3  UNL     1       1.343  -1.893  -5.594  1.00  0.00     0.037 C   
BRANCH   2   3
ATOM     3   C2  UNL     1       0.874  -3.352  -5.642  1.00  0.00     0.184 C   
BRANCH   3   4
ATOM     4   N3  UNL     1      -0.460  -3.497  -5.091  1.00  0.00    -0.239 N   
ATOM     5   C1  UNL     1      -1.080  -4.600  -4.690  1.00  0.00     0.316 C   
ATOM     6   N2  UNL     1      -0.606  -5.822  -4.960  1.00  0.00    -0.252 N   
ATOM     7   H3  UNL     1      -1.083  -6.652  -4.640  1.00  0.00     0.241 HD  
ATOM     8   H4  UNL     1       0.227  -5.931  -5.523  1.00  0.00     0.241 HD  
ATOM     9   H5  UNL     1      -0.995  -2.652  -4.824  1.00  0.00     0.244 HD  
BRANCH   5  10
ATOM     10  N1  UNL     1      -2.202  -4.477  -3.985  1.00  0.00    -0.252 N   
ATOM     11  H1  UNL     1      -2.748  -5.253  -3.645  1.00  0.00     0.241 HD  
ATOM     12  H2  UNL     1      -2.445  -3.511  -3.694  1.00  0.00     0.241 HD  
ENDBRANCH   5  10
ENDBRANCH   3   4
ENDBRANCH   2   3
ENDBRANCH   1   2
BRANCH   1  13
ATOM     13  C5  UNL     1       0.324  -0.427  -3.709  1.00  0.00     0.145 C   
BRANCH  13  14
ATOM     14  C6  UNL     1      -0.774  -1.212  -2.953  1.00  0.00     0.064 C   
ATOM     15  O1  UNL     1      -1.581  -1.839  -3.731  1.00  0.00    -0.548 OA  
ATOM     16  O2  UNL     1      -0.756  -1.256  -1.685  1.00  0.00    -0.548 OA  
ENDBRANCH  13  14
BRANCH  13  17
ATOM     17  N4  UNL     1       0.738   0.669  -2.848  1.00  0.00    -0.203 N   
ATOM     18  C7  UNL     1       1.427   0.587  -1.668  1.00  0.00     0.046 A   
ATOM     19  N7  UNL     1       0.207   1.895  -3.011  1.00  0.00    -0.075 NA  
ATOM     20  C8  UNL     1       0.958   1.691  -0.986  1.00  0.00     0.127 A   
ATOM     21  N6  UNL     1       0.312   2.527  -1.855  1.00  0.00    -0.132 NA  
ATOM     22  H13 UNL     1       1.913  -0.322  -1.347  1.00  0.00     0.083 HD  
BRANCH  20  23
ATOM     23  C9  UNL     1       0.776   1.862   0.483  1.00  0.00     0.117 C   
BRANCH  23  24
ATOM     24  N5  UNL     1      -0.356   0.936   0.891  1.00  0.00     0.249 N   
ATOM     25  H15 UNL     1      -0.177  -0.014   0.521  1.00  0.00     0.199 HD  
ATOM     26  H16 UNL     1      -0.436   0.856   1.905  1.00  0.00     0.199 HD  
BRANCH  24  27
ATOM     27  C10 UNL     1      -1.695   1.306   0.329  1.00  0.00     0.164 C   
BRANCH  27  28
ATOM     28  C11 UNL     1      -2.794   0.726   1.179  1.00  0.00    -0.002 A   
ATOM     29  C12 UNL     1      -3.225  -0.607   0.976  1.00  0.00     0.012 A   
ATOM     30  C16 UNL     1      -3.352   1.487   2.224  1.00  0.00     0.045 A   
ATOM     31  C13 UNL     1      -4.204  -1.175   1.799  1.00  0.00     0.037 A   
ATOM     32  C15 UNL     1      -4.319   0.900   3.010  1.00  0.00     0.109 A   
ATOM     33  C14 UNL     1      -4.733  -0.393   2.805  1.00  0.00     0.108 A   
ATOM     34  O3  UNL     1      -4.961   1.498   4.049  1.00  0.00    -0.316 OA  
ATOM     35  O4  UNL     1      -5.697  -0.770   3.689  1.00  0.00    -0.316 OA  
ATOM     36  C17 UNL     1      -5.885   0.455   4.429  1.00  0.00     0.337 C   
ENDBRANCH  27  28
ENDBRANCH  24  27
ENDBRANCH  23  24
BRANCH  23  37
ATOM     37  C18 UNL     1       2.047   1.561   1.322  1.00  0.00     0.043 C   
ATOM     38  C19 UNL     1       3.220   2.500   0.948  1.00  0.00     0.010 C   
ATOM     39  C23 UNL     1       1.762   1.612   2.843  1.00  0.00     0.010 C   
ATOM     40  C20 UNL     1       3.313   3.714   1.868  1.00  0.00     0.001 C   
ATOM     41  C22 UNL     1       3.010   1.928   3.661  1.00  0.00     0.001 C   
ATOM     42  C21 UNL     1       3.571   3.305   3.318  1.00  0.00     0.000 C   
ENDBRANCH  23  37
ENDBRANCH  20  23
ENDBRANCH  13  17
ENDBRANCH   1  13
TORSDOF 12
