REMARK SMILES c1ccc2c(c1)OC[C@H](Cn1cc([C@@H]([NH2+]Cc3ccc4c(c3)OCO4)C3CCCCC3)nn1)O2
REMARK SMILES IDX 14 1 13 2 11 3 12 4 33 5 32 6 10 8 9 9 1 10 2 11 6 12 3 13
REMARK SMILES IDX 5 14 4 15 7 16 34 17 8 18 15 19 16 22 17 23 18 24 22 25
REMARK SMILES IDX 19 26 21 27 20 28 23 29 25 30 24 31 26 32 27 33 31 34 28 35
REMARK SMILES IDX 30 36 29 37
REMARK H PARENT 12 7 15 20 15 21
ROOT
ATOM     1   C12 UNL     1      -0.196  -1.142  -1.813  1.00  0.00     0.117 C   
ENDROOT
BRANCH   1   2
ATOM     2   C11 UNL     1       0.494  -1.400  -0.513  1.00  0.00     0.127 A   
ATOM     3   N1  UNL     1       1.438  -1.369   1.430  1.00  0.00    -0.209 N   
ATOM     4   C10 UNL     1       0.858  -0.547   0.506  1.00  0.00     0.045 A   
ATOM     5   N4  UNL     1       1.480  -2.640   0.989  1.00  0.00    -0.076 NA  
ATOM     6   N3  UNL     1       0.896  -2.675  -0.198  1.00  0.00    -0.132 NA  
ATOM     7   H10 UNL     1       0.740   0.516   0.669  1.00  0.00     0.083 HD  
BRANCH   3   8
ATOM     8   C9  UNL     1       1.978  -1.016   2.729  1.00  0.00     0.169 C   
BRANCH   8   9
ATOM     9   C8  UNL     1       0.911  -1.127   3.824  1.00  0.00     0.171 C   
ATOM     10  C1  UNL     1       0.793   3.637   5.141  1.00  0.00     0.003 A   
ATOM     11  C2  UNL     1      -0.325   3.435   4.330  1.00  0.00     0.003 A   
ATOM     12  C6  UNL     1       1.613   2.561   5.483  1.00  0.00     0.036 A   
ATOM     13  C3  UNL     1      -0.619   2.159   3.846  1.00  0.00     0.036 A   
ATOM     14  C5  UNL     1       1.310   1.285   5.014  1.00  0.00     0.105 A   
ATOM     15  C4  UNL     1       0.208   1.087   4.176  1.00  0.00     0.106 A   
ATOM     16  O1  UNL     1       2.150   0.267   5.391  1.00  0.00    -0.341 OA  
ATOM     17  O4  UNL     1      -0.111  -0.129   3.627  1.00  0.00    -0.336 OA  
ATOM     18  C7  UNL     1       1.512  -1.002   5.223  1.00  0.00     0.202 C   
ENDBRANCH   8   9
ENDBRANCH   3   8
ENDBRANCH   1   2
BRANCH   1  19
ATOM     19  N2  UNL     1       0.233  -2.155  -2.848  1.00  0.00     0.249 N   
ATOM     20  H12 UNL     1       0.186  -3.073  -2.382  1.00  0.00     0.199 HD  
ATOM     21  H13 UNL     1      -0.422  -2.180  -3.633  1.00  0.00     0.199 HD  
BRANCH  19  22
ATOM     22  C13 UNL     1       1.621  -2.006  -3.378  1.00  0.00     0.164 C   
BRANCH  22  23
ATOM     23  C14 UNL     1       1.790  -0.780  -4.231  1.00  0.00    -0.002 A   
ATOM     24  C15 UNL     1       1.237  -0.729  -5.534  1.00  0.00     0.012 A   
ATOM     25  C19 UNL     1       2.471   0.342  -3.724  1.00  0.00     0.045 A   
ATOM     26  C16 UNL     1       1.352   0.426  -6.318  1.00  0.00     0.037 A   
ATOM     27  C18 UNL     1       2.563   1.464  -4.522  1.00  0.00     0.109 A   
ATOM     28  C17 UNL     1       2.018   1.506  -5.781  1.00  0.00     0.108 A   
ATOM     29  O2  UNL     1       3.172   2.629  -4.179  1.00  0.00    -0.316 OA  
ATOM     30  O3  UNL     1       2.218   2.703  -6.392  1.00  0.00    -0.316 OA  
ATOM     31  C20 UNL     1       2.979   3.404  -5.385  1.00  0.00     0.337 C   
ENDBRANCH  22  23
ENDBRANCH  19  22
ENDBRANCH   1  19
BRANCH   1  32
ATOM     32  C21 UNL     1      -1.743  -1.144  -1.660  1.00  0.00     0.043 C   
ATOM     33  C22 UNL     1      -2.438  -0.536  -2.895  1.00  0.00     0.010 C   
ATOM     34  C26 UNL     1      -2.343  -2.527  -1.340  1.00  0.00     0.010 C   
ATOM     35  C23 UNL     1      -3.953  -0.466  -2.710  1.00  0.00     0.001 C   
ATOM     36  C25 UNL     1      -3.859  -2.453  -1.159  1.00  0.00     0.001 C   
ATOM     37  C24 UNL     1      -4.542  -1.832  -2.372  1.00  0.00     0.000 C   
ENDBRANCH   1  32
TORSDOF 7
