REMARK SMILES CC(C)C[C@H]([NH2+]Cc1ccc2c(c1)OCO2)c1cn(CC(=O)c2cccc(F)c2)nn1
REMARK SMILES IDX 17 1 18 2 19 3 30 4 31 5 5 7 4 8 2 9 1 10 3 11 6 12 7 15
REMARK SMILES IDX 8 16 9 17 13 18 10 19 12 20 11 21 14 22 16 23 15 24 20 25
REMARK SMILES IDX 21 26 22 27 23 28 24 29 29 30 25 31 27 32 26 33 28 34
REMARK H PARENT 18 6 6 13 6 14
ROOT
ATOM     1   C14 UNL     1       1.417   0.217  -0.248  1.00  0.00     0.127 A   
ATOM     2   C15 UNL     1       0.946   1.260   0.519  1.00  0.00     0.046 A   
ATOM     3   N2  UNL     1       1.010   2.336  -0.322  1.00  0.00    -0.204 N   
ATOM     4   N3  UNL     1       1.562   1.996  -1.501  1.00  0.00    -0.076 NA  
ATOM     5   N4  UNL     1       1.811   0.697  -1.470  1.00  0.00    -0.132 NA  
ATOM     6   H20 UNL     1       0.512   1.319   1.508  1.00  0.00     0.083 HD  
ENDROOT
BRANCH   1   7
ATOM     7   C5  UNL     1       1.435  -1.249   0.011  1.00  0.00     0.114 C   
BRANCH   7   8
ATOM     8   C4  UNL     1       2.857  -1.798   0.231  1.00  0.00     0.064 C   
BRANCH   8   9
ATOM     9   C2  UNL     1       3.590  -1.233   1.467  1.00  0.00    -0.012 C   
ATOM     10  C1  UNL     1       2.857  -1.544   2.773  1.00  0.00     0.007 C   
ATOM     11  C3  UNL     1       5.012  -1.801   1.527  1.00  0.00     0.007 C   
ENDBRANCH   8   9
ENDBRANCH   7   8
BRANCH   7  12
ATOM     12  N1  UNL     1       0.857  -1.990  -1.181  1.00  0.00     0.249 N   
ATOM     13  H11 UNL     1       1.413  -1.704  -1.999  1.00  0.00     0.199 HD  
ATOM     14  H12 UNL     1       0.984  -2.998  -1.060  1.00  0.00     0.199 HD  
BRANCH  12  15
ATOM     15  C6  UNL     1      -0.577  -1.708  -1.506  1.00  0.00     0.164 C   
BRANCH  15  16
ATOM     16  C7  UNL     1      -1.522  -2.074  -0.396  1.00  0.00    -0.002 A   
ATOM     17  C8  UNL     1      -2.212  -1.059   0.311  1.00  0.00     0.012 A   
ATOM     18  C12 UNL     1      -1.712  -3.419  -0.036  1.00  0.00     0.045 A   
ATOM     19  C9  UNL     1      -3.070  -1.376   1.369  1.00  0.00     0.037 A   
ATOM     20  C11 UNL     1      -2.563  -3.696   1.014  1.00  0.00     0.109 A   
ATOM     21  C10 UNL     1      -3.222  -2.704   1.698  1.00  0.00     0.108 A   
ATOM     22  O1  UNL     1      -2.849  -4.935   1.492  1.00  0.00    -0.316 OA  
ATOM     23  O2  UNL     1      -4.007  -3.194   2.692  1.00  0.00    -0.316 OA  
ATOM     24  C13 UNL     1      -3.794  -4.614   2.538  1.00  0.00     0.337 C   
ENDBRANCH  15  16
ENDBRANCH  12  15
ENDBRANCH   7  12
ENDBRANCH   1   7
BRANCH   3  25
ATOM     25  C16 UNL     1       0.505   3.678  -0.102  1.00  0.00     0.214 C   
BRANCH  25  26
ATOM     26  C17 UNL     1      -1.004   3.718  -0.224  1.00  0.00     0.182 C   
ATOM     27  O3  UNL     1      -1.694   2.697  -0.214  1.00  0.00    -0.292 OA  
BRANCH  26  28
ATOM     28  C18 UNL     1      -1.678   5.046  -0.329  1.00  0.00     0.022 A   
ATOM     29  C19 UNL     1      -0.992   6.256  -0.146  1.00  0.00     0.012 A   
ATOM     30  C23 UNL     1      -3.050   5.071  -0.612  1.00  0.00     0.051 A   
ATOM     31  C20 UNL     1      -1.673   7.474  -0.253  1.00  0.00     0.004 A   
ATOM     32  C22 UNL     1      -3.712   6.288  -0.715  1.00  0.00     0.123 A   
ATOM     33  C21 UNL     1      -3.037   7.489  -0.540  1.00  0.00     0.039 A   
ATOM     34  F1  UNL     1      -5.022   6.302  -0.988  1.00  0.00    -0.207 F   
ENDBRANCH  26  28
ENDBRANCH  25  26
ENDBRANCH   3  25
TORSDOF 9
