REMARK SMILES Cc1cn([C@H]2C[C@H](n3cc([C@@H]([NH2+]Cc4ccc5c(c4)OCO5)C4CCCC4)nn3)[C@@H](CO)O2)c(=O)[nH]c1=O
REMARK SMILES IDX 8 1 9 2 10 3 28 4 29 5 7 7 5 8 6 9 33 10 30 11 4 12 2 13
REMARK SMILES IDX 3 14 37 15 36 16 34 17 1 18 38 19 35 21 31 22 32 23 11 25
REMARK SMILES IDX 12 26 13 29 14 30 15 31 19 32 16 33 18 34 17 35 20 36 22 37
REMARK SMILES IDX 21 38 23 39 24 40 27 41 25 42 26 43
REMARK H PARENT 9 6 36 20 32 24 12 27 12 28
ROOT
ATOM     1   N2  UNL     1      -1.160  -0.634  -0.214  1.00  0.00    -0.206 N   
ATOM     2   C7  UNL     1      -0.953  -0.738  -1.563  1.00  0.00     0.046 A   
ATOM     3   C8  UNL     1       0.416  -0.826  -1.688  1.00  0.00     0.127 A   
ATOM     4   N4  UNL     1       0.983  -0.757  -0.442  1.00  0.00    -0.132 NA  
ATOM     5   N5  UNL     1       0.013  -0.611   0.446  1.00  0.00    -0.076 NA  
ATOM     6   H9  UNL     1      -1.770  -0.726  -2.276  1.00  0.00     0.083 HD  
ENDROOT
BRANCH   1   7
ATOM     7   C6  UNL     1      -2.434  -0.497   0.473  1.00  0.00     0.135 C   
ATOM     8   C4  UNL     1      -2.091   0.070   2.758  1.00  0.00     0.216 C   
ATOM     9   C5  UNL     1      -2.478  -1.100   1.863  1.00  0.00     0.080 C   
ATOM     10  O4  UNL     1      -2.608   1.248   2.118  1.00  0.00    -0.352 OA  
ATOM     11  C23 UNL     1      -2.775   0.973   0.716  1.00  0.00     0.169 C   
BRANCH   8  12
ATOM     12  N1  UNL     1      -2.609  -0.065   4.115  1.00  0.00    -0.235 N   
ATOM     13  C2  UNL     1      -4.219   0.501   5.784  1.00  0.00     0.026 A   
ATOM     14  C3  UNL     1      -3.726   0.626   4.545  1.00  0.00     0.091 A   
ATOM     15  C26 UNL     1      -3.523  -0.409   6.724  1.00  0.00     0.247 A   
ATOM     16  N6  UNL     1      -2.438  -1.067   6.219  1.00  0.00    -0.235 N   
ATOM     17  C25 UNL     1      -1.945  -0.959   4.947  1.00  0.00     0.313 A   
ATOM     18  C1  UNL     1      -5.420   1.230   6.292  1.00  0.00     0.051 C   
ATOM     19  O6  UNL     1      -3.903  -0.560   7.880  1.00  0.00    -0.272 OA  
ATOM     20  H33 UNL     1      -1.957  -1.700   6.840  1.00  0.00     0.161 HD  
ATOM     21  O5  UNL     1      -0.985  -1.638   4.592  1.00  0.00    -0.253 OA  
ENDBRANCH   8  12
BRANCH  11  22
ATOM     22  C24 UNL     1      -4.213   1.296   0.310  1.00  0.00     0.190 C   
BRANCH  22  23
ATOM     23  O3  UNL     1      -4.397   1.034  -1.080  1.00  0.00    -0.394 OA  
ATOM     24  H32 UNL     1      -5.317   1.298  -1.288  1.00  0.00     0.210 HD  
ENDBRANCH  22  23
ENDBRANCH  11  22
ENDBRANCH   1   7
BRANCH   3  25
ATOM     25  C9  UNL     1       1.293  -0.914  -2.894  1.00  0.00     0.117 C   
BRANCH  25  26
ATOM     26  N3  UNL     1       2.620  -0.249  -2.613  1.00  0.00     0.249 N   
ATOM     27  H11 UNL     1       2.948  -0.621  -1.711  1.00  0.00     0.199 HD  
ATOM     28  H12 UNL     1       3.329  -0.498  -3.310  1.00  0.00     0.199 HD  
BRANCH  26  29
ATOM     29  C10 UNL     1       2.578   1.239  -2.492  1.00  0.00     0.164 C   
BRANCH  29  30
ATOM     30  C11 UNL     1       3.960   1.812  -2.321  1.00  0.00    -0.002 A   
ATOM     31  C12 UNL     1       4.481   2.714  -3.280  1.00  0.00     0.012 A   
ATOM     32  C16 UNL     1       4.745   1.460  -1.206  1.00  0.00     0.045 A   
ATOM     33  C13 UNL     1       5.763   3.255  -3.139  1.00  0.00     0.037 A   
ATOM     34  C15 UNL     1       6.013   1.996  -1.108  1.00  0.00     0.109 A   
ATOM     35  C14 UNL     1       6.503   2.875  -2.043  1.00  0.00     0.108 A   
ATOM     36  O1  UNL     1       6.909   1.736  -0.118  1.00  0.00    -0.316 OA  
ATOM     37  O2  UNL     1       7.757   3.302  -1.747  1.00  0.00    -0.316 OA  
ATOM     38  C17 UNL     1       8.026   2.551  -0.539  1.00  0.00     0.337 C   
ENDBRANCH  29  30
ENDBRANCH  26  29
ENDBRANCH  25  26
BRANCH  25  39
ATOM     39  C18 UNL     1       1.562  -2.371  -3.321  1.00  0.00     0.043 C   
ATOM     40  C19 UNL     1       2.382  -2.495  -4.611  1.00  0.00     0.010 C   
ATOM     41  C22 UNL     1       0.294  -3.150  -3.684  1.00  0.00     0.010 C   
ATOM     42  C20 UNL     1       2.099  -3.902  -5.134  1.00  0.00     0.001 C   
ATOM     43  C21 UNL     1       0.804  -4.354  -4.467  1.00  0.00     0.001 C   
ENDBRANCH  25  39
ENDBRANCH   3  25
TORSDOF 9
