REMARK SMILES Cc1cc(C)cc([C@@H](CO)n2cc([C@@H]([NH2+]Cc3ccc4c(c3)OCO4)C(C)(C)C)nn2)c1
REMARK SMILES IDX 11 1 12 2 13 3 30 4 31 5 8 7 7 8 2 9 3 10 32 11 4 12 6 13
REMARK SMILES IDX 1 14 5 15 9 16 10 17 14 19 15 20 16 23 17 24 18 25 22 26
REMARK SMILES IDX 19 27 21 28 20 29 23 30 25 31 24 32 26 33 27 34 28 35 29 36
REMARK H PARENT 12 6 10 18 15 21 15 22
ROOT
ATOM     1   N1  UNL     1       1.686   1.587   0.432  1.00  0.00    -0.202 N   
ATOM     2   C10 UNL     1       0.444   1.283  -0.059  1.00  0.00     0.046 A   
ATOM     3   C11 UNL     1      -0.402   1.494   1.004  1.00  0.00     0.127 A   
ATOM     4   N3  UNL     1       0.325   1.937   2.078  1.00  0.00    -0.132 NA  
ATOM     5   N4  UNL     1       1.598   1.989   1.719  1.00  0.00    -0.075 NA  
ATOM     6   H13 UNL     1       0.299   0.907  -1.063  1.00  0.00     0.083 HD  
ENDROOT
BRANCH   1   7
ATOM     7   C8  UNL     1       2.991   1.358  -0.186  1.00  0.00     0.155 C   
BRANCH   7   8
ATOM     8   C7  UNL     1       3.190  -0.140  -0.404  1.00  0.00    -0.023 A   
ATOM     9   C2  UNL     1       3.055  -2.166  -1.762  1.00  0.00    -0.051 A   
ATOM     10  C3  UNL     1       3.505  -2.923  -0.675  1.00  0.00     0.006 A   
ATOM     11  C25 UNL     1       2.909  -0.778  -1.621  1.00  0.00     0.009 A   
ATOM     12  C4  UNL     1       3.775  -2.316   0.555  1.00  0.00    -0.051 A   
ATOM     13  C6  UNL     1       3.623  -0.930   0.679  1.00  0.00     0.009 A   
ATOM     14  C1  UNL     1       2.797  -2.822  -3.088  1.00  0.00     0.044 C   
ATOM     15  C5  UNL     1       4.291  -3.133   1.704  1.00  0.00     0.044 C   
ENDBRANCH   7   8
BRANCH   7  16
ATOM     16  C9  UNL     1       3.240   2.293  -1.388  1.00  0.00     0.185 C   
BRANCH  16  17
ATOM     17  O1  UNL     1       2.247   2.189  -2.409  1.00  0.00    -0.394 OA  
ATOM     18  H12 UNL     1       2.518   2.788  -3.130  1.00  0.00     0.210 HD  
ENDBRANCH  16  17
ENDBRANCH   7  16
ENDBRANCH   1   7
BRANCH   3  19
ATOM     19  C12 UNL     1      -1.858   1.184   1.151  1.00  0.00     0.120 C   
BRANCH  19  20
ATOM     20  N2  UNL     1      -2.094   0.450   2.458  1.00  0.00     0.250 N   
ATOM     21  H15 UNL     1      -3.091   0.277   2.596  1.00  0.00     0.199 HD  
ATOM     22  H16 UNL     1      -1.776   1.075   3.210  1.00  0.00     0.199 HD  
BRANCH  20  23
ATOM     23  C13 UNL     1      -1.358  -0.843   2.644  1.00  0.00     0.164 C   
BRANCH  23  24
ATOM     24  C14 UNL     1      -1.626  -1.857   1.568  1.00  0.00    -0.002 A   
ATOM     25  C15 UNL     1      -0.593  -2.229   0.673  1.00  0.00     0.012 A   
ATOM     26  C19 UNL     1      -2.902  -2.428   1.424  1.00  0.00     0.045 A   
ATOM     27  C16 UNL     1      -0.826  -3.143  -0.360  1.00  0.00     0.037 A   
ATOM     28  C18 UNL     1      -3.098  -3.326   0.395  1.00  0.00     0.109 A   
ATOM     29  C17 UNL     1      -2.091  -3.672  -0.473  1.00  0.00     0.108 A   
ATOM     30  O2  UNL     1      -4.268  -3.958   0.113  1.00  0.00    -0.316 OA  
ATOM     31  O3  UNL     1      -2.500  -4.567  -1.409  1.00  0.00    -0.316 OA  
ATOM     32  C20 UNL     1      -3.875  -4.769  -1.018  1.00  0.00     0.337 C   
ENDBRANCH  23  24
ENDBRANCH  20  23
ENDBRANCH  19  20
BRANCH  19  33
ATOM     33  C21 UNL     1      -2.797   2.438   1.046  1.00  0.00     0.010 C   
ATOM     34  C22 UNL     1      -4.280   2.000   1.072  1.00  0.00     0.017 C   
ATOM     35  C23 UNL     1      -2.562   3.159  -0.301  1.00  0.00     0.017 C   
ATOM     36  C24 UNL     1      -2.580   3.457   2.183  1.00  0.00     0.017 C   
ENDBRANCH  19  33
ENDBRANCH   3  19
TORSDOF 9
