REMARK SMILES Cc1cc(C)cc([C@H](CO)n2cc([C@@H]([NH2+]Cc3ccc4c(c3)OCO4)C(C)(C)C)nn2)c1
REMARK SMILES IDX 11 1 12 2 13 3 30 4 31 5 8 7 7 8 2 9 3 10 32 11 4 12 6 13
REMARK SMILES IDX 1 14 5 15 9 16 10 17 14 19 15 20 16 23 17 24 18 25 22 26
REMARK SMILES IDX 19 27 21 28 20 29 23 30 25 31 24 32 26 33 27 34 28 35 29 36
REMARK H PARENT 12 6 10 18 15 21 15 22
ROOT
ATOM     1   N1  UNL     1      -0.987   1.600  -0.450  1.00  0.00    -0.202 N   
ATOM     2   C10 UNL     1      -0.161   0.718   0.194  1.00  0.00     0.046 A   
ATOM     3   C11 UNL     1       0.447   0.020  -0.824  1.00  0.00     0.127 A   
ATOM     4   N3  UNL     1      -0.042   0.460  -2.026  1.00  0.00    -0.132 NA  
ATOM     5   N4  UNL     1      -0.920   1.421  -1.787  1.00  0.00    -0.075 NA  
ATOM     6   H13 UNL     1      -0.094   0.671   1.272  1.00  0.00     0.083 HD  
ENDROOT
BRANCH   1   7
ATOM     7   C8  UNL     1      -1.900   2.594   0.116  1.00  0.00     0.155 C   
BRANCH   7   8
ATOM     8   C7  UNL     1      -1.252   3.336   1.281  1.00  0.00    -0.023 A   
ATOM     9   C2  UNL     1      -0.914   3.746   3.667  1.00  0.00    -0.051 A   
ATOM     10  C3  UNL     1       0.023   4.739   3.361  1.00  0.00     0.006 A   
ATOM     11  C25 UNL     1      -1.532   3.040   2.625  1.00  0.00     0.009 A   
ATOM     12  C4  UNL     1       0.337   5.042   2.032  1.00  0.00    -0.051 A   
ATOM     13  C6  UNL     1      -0.311   4.347   1.003  1.00  0.00     0.009 A   
ATOM     14  C1  UNL     1      -1.213   3.403   5.098  1.00  0.00     0.044 C   
ATOM     15  C5  UNL     1       1.308   6.142   1.714  1.00  0.00     0.044 C   
ENDBRANCH   7   8
BRANCH   7  16
ATOM     16  C9  UNL     1      -3.294   1.979   0.362  1.00  0.00     0.185 C   
BRANCH  16  17
ATOM     17  O1  UNL     1      -3.256   0.804   1.178  1.00  0.00    -0.394 OA  
ATOM     18  H12 UNL     1      -4.184   0.571   1.375  1.00  0.00     0.210 HD  
ENDBRANCH  16  17
ENDBRANCH   7  16
ENDBRANCH   1   7
BRANCH   3  19
ATOM     19  C12 UNL     1       1.408  -1.126  -0.780  1.00  0.00     0.120 C   
BRANCH  19  20
ATOM     20  N2  UNL     1       0.997  -2.155  -1.816  1.00  0.00     0.250 N   
ATOM     21  H15 UNL     1       0.908  -1.647  -2.706  1.00  0.00     0.199 HD  
ATOM     22  H16 UNL     1       1.723  -2.864  -1.938  1.00  0.00     0.199 HD  
BRANCH  20  23
ATOM     23  C13 UNL     1      -0.308  -2.846  -1.578  1.00  0.00     0.164 C   
BRANCH  23  24
ATOM     24  C14 UNL     1      -0.317  -3.677  -0.326  1.00  0.00    -0.002 A   
ATOM     25  C15 UNL     1      -1.067  -3.258   0.801  1.00  0.00     0.012 A   
ATOM     26  C19 UNL     1       0.446  -4.855  -0.250  1.00  0.00     0.045 A   
ATOM     27  C16 UNL     1      -1.053  -3.996   1.989  1.00  0.00     0.037 A   
ATOM     28  C18 UNL     1       0.438  -5.557   0.937  1.00  0.00     0.109 A   
ATOM     29  C17 UNL     1      -0.288  -5.140   2.025  1.00  0.00     0.108 A   
ATOM     30  O2  UNL     1       1.125  -6.704   1.179  1.00  0.00    -0.316 OA  
ATOM     31  O3  UNL     1      -0.151  -5.973   3.089  1.00  0.00    -0.316 OA  
ATOM     32  C20 UNL     1       0.719  -6.985   2.538  1.00  0.00     0.337 C   
ENDBRANCH  23  24
ENDBRANCH  20  23
ENDBRANCH  19  20
BRANCH  19  33
ATOM     33  C21 UNL     1       2.910  -0.715  -0.982  1.00  0.00     0.010 C   
ATOM     34  C22 UNL     1       3.311   0.356   0.059  1.00  0.00     0.017 C   
ATOM     35  C23 UNL     1       3.833  -1.935  -0.751  1.00  0.00     0.017 C   
ATOM     36  C24 UNL     1       3.199  -0.155  -2.389  1.00  0.00     0.017 C   
ENDBRANCH  19  33
ENDBRANCH   3  19
TORSDOF 9
