REMARK SMILES CC(C)C[C@H]([NH2+]Cc1ccc2c(c1)OCO2)c1cn(Cc2c(O)cccc2Cl)nn1
REMARK SMILES IDX 17 1 18 2 19 3 29 4 30 5 5 7 4 8 2 9 1 10 3 11 6 12 7 15
REMARK SMILES IDX 8 16 9 17 13 18 10 19 12 20 11 21 14 22 16 23 15 24 20 25
REMARK SMILES IDX 21 26 22 27 27 28 24 29 26 30 25 31 28 32 23 33
REMARK H PARENT 18 6 6 13 6 14 23 34
ROOT
ATOM     1   C14 UNL     1       0.127  -0.100  -1.567  1.00  0.00     0.127 A   
ATOM     2   C15 UNL     1       0.988  -1.107  -1.195  1.00  0.00     0.046 A   
ATOM     3   N2  UNL     1       2.229  -0.598  -1.472  1.00  0.00    -0.208 N   
ATOM     4   N3  UNL     1       2.131   0.640  -1.999  1.00  0.00    -0.076 NA  
ATOM     5   N4  UNL     1       0.850   0.960  -2.050  1.00  0.00    -0.132 NA  
ATOM     6   H20 UNL     1       0.853  -2.083  -0.751  1.00  0.00     0.083 HD  
ENDROOT
BRANCH   1   7
ATOM     7   C5  UNL     1      -1.357   0.036  -1.452  1.00  0.00     0.114 C   
BRANCH   7   8
ATOM     8   C4  UNL     1      -2.053  -0.272  -2.790  1.00  0.00     0.064 C   
BRANCH   8   9
ATOM     9   C2  UNL     1      -3.596  -0.277  -2.752  1.00  0.00    -0.012 C   
ATOM     10  C1  UNL     1      -4.155  -1.337  -1.802  1.00  0.00     0.007 C   
ATOM     11  C3  UNL     1      -4.143  -0.513  -4.164  1.00  0.00     0.007 C   
ENDBRANCH   8   9
ENDBRANCH   7   8
BRANCH   7  12
ATOM     12  N1  UNL     1      -1.675   1.458  -1.036  1.00  0.00     0.249 N   
ATOM     13  H11 UNL     1      -2.369   1.879  -1.661  1.00  0.00     0.199 HD  
ATOM     14  H12 UNL     1      -0.810   1.996  -1.214  1.00  0.00     0.199 HD  
BRANCH  12  15
ATOM     15  C6  UNL     1      -2.075   1.667   0.382  1.00  0.00     0.164 C   
BRANCH  15  16
ATOM     16  C7  UNL     1      -1.094   1.126   1.386  1.00  0.00    -0.002 A   
ATOM     17  C8  UNL     1       0.205   1.678   1.498  1.00  0.00     0.012 A   
ATOM     18  C12 UNL     1      -1.451   0.034   2.197  1.00  0.00     0.045 A   
ATOM     19  C9  UNL     1       1.143   1.135   2.383  1.00  0.00     0.037 A   
ATOM     20  C11 UNL     1      -0.503  -0.475   3.060  1.00  0.00     0.109 A   
ATOM     21  C10 UNL     1       0.761   0.053   3.145  1.00  0.00     0.108 A   
ATOM     22  O1  UNL     1      -0.681  -1.535   3.890  1.00  0.00    -0.316 OA  
ATOM     23  O2  UNL     1       1.549  -0.629   4.020  1.00  0.00    -0.316 OA  
ATOM     24  C13 UNL     1       0.595  -1.571   4.564  1.00  0.00     0.337 C   
ENDBRANCH  15  16
ENDBRANCH  12  15
ENDBRANCH   7  12
ENDBRANCH   1   7
BRANCH   3  25
ATOM     25  C16 UNL     1       3.522  -1.244  -1.305  1.00  0.00     0.173 C   
BRANCH  25  26
ATOM     26  C17 UNL     1       4.343  -0.577  -0.231  1.00  0.00     0.020 A   
ATOM     27  C18 UNL     1       4.066  -0.837   1.120  1.00  0.00     0.078 A   
ATOM     28  C22 UNL     1       5.375   0.331  -0.522  1.00  0.00     0.048 A   
ATOM     29  C19 UNL     1       4.792  -0.234   2.149  1.00  0.00     0.033 A   
ATOM     30  C21 UNL     1       6.104   0.939   0.505  1.00  0.00     0.021 A   
ATOM     31  C20 UNL     1       5.815   0.656   1.839  1.00  0.00     0.004 A   
ATOM     32  CL1 UNL     1       5.802   0.748  -2.143  1.00  0.00    -0.084 Cl  
BRANCH  27  33
ATOM     33  O3  UNL     1       3.048  -1.699   1.428  1.00  0.00    -0.361 OA  
ATOM     34  H23 UNL     1       2.914  -1.675   2.394  1.00  0.00     0.218 HD  
ENDBRANCH  27  33
ENDBRANCH  25  26
ENDBRANCH   3  25
TORSDOF 9
