REMARK SMILES CCn1nc(C)c(CCn2cc([C@@H]([NH2+]Cc3ccc4c(c3)OCO4)C(C)C)nn2)c1C
REMARK SMILES IDX 10 1 11 2 12 3 28 4 29 5 9 7 8 8 7 9 3 10 4 11 30 12 5 13
REMARK SMILES IDX 31 14 6 15 2 16 1 17 13 18 14 19 15 22 16 23 17 24 21 25
REMARK SMILES IDX 18 26 20 27 19 28 22 29 24 30 23 31 25 32 26 33 27 34
REMARK H PARENT 11 6 14 20 14 21
ROOT
ATOM     1   N3  UNL     1       3.290   1.863  -0.676  1.00  0.00    -0.212 N   
ATOM     2   C8  UNL     1       2.544   1.117   0.199  1.00  0.00     0.045 A   
ATOM     3   C9  UNL     1       1.679   2.037   0.754  1.00  0.00     0.127 A   
ATOM     4   N5  UNL     1       2.039   3.291   0.336  1.00  0.00    -0.132 NA  
ATOM     5   N6  UNL     1       3.040   3.174  -0.523  1.00  0.00    -0.076 NA  
ATOM     6   H13 UNL     1       2.595   0.038   0.216  1.00  0.00     0.083 HD  
ENDROOT
BRANCH   1   7
ATOM     7   C7  UNL     1       3.990   1.381  -1.854  1.00  0.00     0.139 C   
BRANCH   7   8
ATOM     8   C6  UNL     1       3.090   1.381  -3.106  1.00  0.00     0.060 C   
BRANCH   8   9
ATOM     9   C5  UNL     1       1.778   0.693  -2.856  1.00  0.00    -0.005 A   
ATOM     10  N1  UNL     1       0.214  -0.791  -2.426  1.00  0.00    -0.230 N   
ATOM     11  N2  UNL     1      -0.323   0.390  -2.025  1.00  0.00    -0.186 NA  
ATOM     12  C22 UNL     1       1.524  -0.668  -2.822  1.00  0.00     0.030 A   
ATOM     13  C3  UNL     1       0.536   1.301  -2.512  1.00  0.00     0.060 A   
ATOM     14  C23 UNL     1       2.393  -1.832  -3.144  1.00  0.00     0.064 C   
ATOM     15  C4  UNL     1       0.162   2.741  -2.519  1.00  0.00     0.069 C   
BRANCH  10  16
ATOM     16  C2  UNL     1      -0.577  -2.007  -2.337  1.00  0.00     0.129 C   
ATOM     17  C1  UNL     1      -0.437  -2.687  -0.988  1.00  0.00     0.027 C   
ENDBRANCH  10  16
ENDBRANCH   8   9
ENDBRANCH   7   8
ENDBRANCH   1   7
BRANCH   3  18
ATOM     18  C10 UNL     1       0.428   1.856   1.551  1.00  0.00     0.117 C   
BRANCH  18  19
ATOM     19  N4  UNL     1      -0.551   0.944   0.848  1.00  0.00     0.249 N   
ATOM     20  H15 UNL     1      -0.375   0.947  -0.181  1.00  0.00     0.199 HD  
ATOM     21  H16 UNL     1      -0.395  -0.033   1.103  1.00  0.00     0.199 HD  
BRANCH  19  22
ATOM     22  C11 UNL     1      -1.983   1.300   1.028  1.00  0.00     0.164 C   
BRANCH  22  23
ATOM     23  C12 UNL     1      -2.890   0.173   0.623  1.00  0.00    -0.002 A   
ATOM     24  C13 UNL     1      -3.410   0.108  -0.691  1.00  0.00     0.012 A   
ATOM     25  C17 UNL     1      -3.195  -0.849   1.539  1.00  0.00     0.045 A   
ATOM     26  C14 UNL     1      -4.228  -0.955  -1.091  1.00  0.00     0.037 A   
ATOM     27  C16 UNL     1      -4.001  -1.884   1.112  1.00  0.00     0.109 A   
ATOM     28  C15 UNL     1      -4.501  -1.937  -0.166  1.00  0.00     0.108 A   
ATOM     29  O1  UNL     1      -4.384  -2.947   1.866  1.00  0.00    -0.316 OA  
ATOM     30  O2  UNL     1      -5.257  -3.046  -0.379  1.00  0.00    -0.316 OA  
ATOM     31  C18 UNL     1      -5.216  -3.664   0.926  1.00  0.00     0.337 C   
ENDBRANCH  22  23
ENDBRANCH  19  22
ENDBRANCH  18  19
BRANCH  18  32
ATOM     32  C19 UNL     1       0.643   1.383   3.013  1.00  0.00     0.037 C   
ATOM     33  C20 UNL     1       1.344   0.028   3.162  1.00  0.00     0.014 C   
ATOM     34  C21 UNL     1       1.399   2.441   3.827  1.00  0.00     0.014 C   
ENDBRANCH  18  32
ENDBRANCH   3  18
TORSDOF 9
