REMARK SMILES c1cn2ccc(Cn3cc([C@@H]([NH2+]Cc4ccc5c(c4)OCO5)C4CCCCC4)nn3)cc2n1
REMARK SMILES IDX 11 1 10 2 8 3 9 4 30 5 29 6 7 8 6 9 1 10 2 11 33 12 3 13
REMARK SMILES IDX 32 14 4 15 31 16 5 17 12 18 13 21 14 22 15 23 19 24 16 25
REMARK SMILES IDX 18 26 17 27 20 28 22 29 21 30 23 31 24 32 28 33 25 34 27 35
REMARK SMILES IDX 26 36
REMARK H PARENT 9 7 12 19 12 20
ROOT
ATOM     1   C9  UNL     1      -0.726  -1.446   0.387  1.00  0.00     0.117 C   
ENDROOT
BRANCH   1   2
ATOM     2   C8  UNL     1       0.711  -1.073   0.190  1.00  0.00     0.127 A   
ATOM     3   N2  UNL     1       2.641  -0.152  -0.157  1.00  0.00    -0.208 N   
ATOM     4   C7  UNL     1       1.316   0.150   0.002  1.00  0.00     0.046 A   
ATOM     5   N5  UNL     1       2.826  -1.488  -0.122  1.00  0.00    -0.076 NA  
ATOM     6   N4  UNL     1       1.656  -2.060   0.102  1.00  0.00    -0.132 NA  
ATOM     7   H7  UNL     1       0.936   1.162  -0.026  1.00  0.00     0.083 HD  
BRANCH   3   8
ATOM     8   C6  UNL     1       3.785   0.714  -0.427  1.00  0.00     0.169 C   
BRANCH   8   9
ATOM     9   C5  UNL     1       3.500   2.189  -0.295  1.00  0.00    -0.024 A   
ATOM     10  C1  UNL     1       2.544   6.438  -1.368  1.00  0.00     0.129 A   
ATOM     11  C2  UNL     1       2.775   6.211  -0.030  1.00  0.00     0.102 A   
ATOM     12  N6  UNL     1       2.656   5.278  -2.093  1.00  0.00    -0.239 NA  
ATOM     13  N1  UNL     1       3.045   4.872   0.071  1.00  0.00    -0.267 N   
ATOM     14  C25 UNL     1       2.972   4.352  -1.215  1.00  0.00     0.128 A   
ATOM     15  C3  UNL     1       3.338   4.102   1.193  1.00  0.00     0.082 A   
ATOM     16  C24 UNL     1       3.232   2.962  -1.373  1.00  0.00     0.050 A   
ATOM     17  C4  UNL     1       3.564   2.785   1.046  1.00  0.00     0.021 A   
ENDBRANCH   8   9
ENDBRANCH   3   8
ENDBRANCH   1   2
BRANCH   1  18
ATOM     18  N3  UNL     1      -1.054  -2.625  -0.510  1.00  0.00     0.249 N   
ATOM     19  H9  UNL     1      -1.990  -2.983  -0.313  1.00  0.00     0.199 HD  
ATOM     20  H10 UNL     1      -0.380  -3.366  -0.272  1.00  0.00     0.199 HD  
BRANCH  18  21
ATOM     21  C10 UNL     1      -0.960  -2.390  -1.984  1.00  0.00     0.164 C   
BRANCH  21  22
ATOM     22  C11 UNL     1      -1.974  -1.396  -2.480  1.00  0.00    -0.002 A   
ATOM     23  C12 UNL     1      -3.337  -1.759  -2.598  1.00  0.00     0.012 A   
ATOM     24  C16 UNL     1      -1.577  -0.084  -2.796  1.00  0.00     0.045 A   
ATOM     25  C13 UNL     1      -4.294  -0.829  -3.023  1.00  0.00     0.037 A   
ATOM     26  C15 UNL     1      -2.547   0.808  -3.206  1.00  0.00     0.109 A   
ATOM     27  C14 UNL     1      -3.867   0.447  -3.317  1.00  0.00     0.108 A   
ATOM     28  O1  UNL     1      -2.335   2.108  -3.534  1.00  0.00    -0.316 OA  
ATOM     29  O2  UNL     1      -4.652   1.472  -3.736  1.00  0.00    -0.316 OA  
ATOM     30  C17 UNL     1      -3.673   2.524  -3.891  1.00  0.00     0.337 C   
ENDBRANCH  21  22
ENDBRANCH  18  21
ENDBRANCH   1  18
BRANCH   1  31
ATOM     31  C18 UNL     1      -1.038  -1.819   1.871  1.00  0.00     0.043 C   
ATOM     32  C19 UNL     1      -0.741  -0.622   2.806  1.00  0.00     0.010 C   
ATOM     33  C23 UNL     1      -2.498  -2.280   2.074  1.00  0.00     0.010 C   
ATOM     34  C20 UNL     1      -1.082  -0.913   4.265  1.00  0.00     0.001 C   
ATOM     35  C22 UNL     1      -2.832  -2.555   3.539  1.00  0.00     0.001 C   
ATOM     36  C21 UNL     1      -2.528  -1.356   4.425  1.00  0.00     0.000 C   
ENDBRANCH   1  31
TORSDOF 7
