REMARK SMILES COc1ncc(CCn2cc([C@@H]([NH2+]Cc3ccc4c(c3)OCO4)C3CCCC3)nn2)cc1C
REMARK SMILES IDX 9 1 10 2 11 3 29 4 30 5 8 7 7 8 6 9 3 10 4 11 32 12 5 13
REMARK SMILES IDX 31 14 33 15 2 16 1 17 12 18 13 19 14 22 15 23 16 24 20 25
REMARK SMILES IDX 17 26 19 27 18 28 21 29 23 30 22 31 24 32 25 33 28 34 26 35
REMARK SMILES IDX 27 36
REMARK H PARENT 10 6 13 20 13 21
ROOT
ATOM     1   N2  UNL     1      -3.226  -0.120  -1.003  1.00  0.00    -0.212 N   
ATOM     2   C7  UNL     1      -2.116   0.610  -0.671  1.00  0.00     0.045 A   
ATOM     3   C8  UNL     1      -1.141   0.131  -1.524  1.00  0.00     0.127 A   
ATOM     4   N4  UNL     1      -1.708  -0.764  -2.389  1.00  0.00    -0.132 NA  
ATOM     5   N5  UNL     1      -2.990  -0.886  -2.082  1.00  0.00    -0.076 NA  
ATOM     6   H9  UNL     1      -2.089   1.268   0.186  1.00  0.00     0.083 HD  
ENDROOT
BRANCH   1   7
ATOM     7   C6  UNL     1      -4.367  -0.396  -0.150  1.00  0.00     0.139 C   
BRANCH   7   8
ATOM     8   C5  UNL     1      -4.272  -1.774   0.532  1.00  0.00     0.058 C   
BRANCH   8   9
ATOM     9   C4  UNL     1      -2.962  -1.980   1.259  1.00  0.00    -0.028 A   
ATOM     10  C2  UNL     1      -0.482  -2.210   2.394  1.00  0.00     0.169 A   
ATOM     11  N1  UNL     1      -0.619  -2.611   1.109  1.00  0.00    -0.232 NA  
ATOM     12  C24 UNL     1      -1.492  -1.616   3.146  1.00  0.00    -0.001 A   
ATOM     13  C3  UNL     1      -1.876  -2.563   0.607  1.00  0.00     0.117 A   
ATOM     14  C23 UNL     1      -2.752  -1.496   2.551  1.00  0.00     0.013 A   
ATOM     15  C25 UNL     1      -1.242  -1.123   4.539  1.00  0.00     0.049 C   
BRANCH  10  16
ATOM     16  O1  UNL     1       0.783  -2.274   2.930  1.00  0.00    -0.332 OA  
ATOM     17  C1  UNL     1       1.331  -3.582   2.763  1.00  0.00     0.205 C   
ENDBRANCH  10  16
ENDBRANCH   8   9
ENDBRANCH   7   8
ENDBRANCH   1   7
BRANCH   3  18
ATOM     18  C9  UNL     1       0.342   0.328  -1.465  1.00  0.00     0.117 C   
BRANCH  18  19
ATOM     19  N3  UNL     1       0.941  -0.842  -0.719  1.00  0.00     0.249 N   
ATOM     20  H11 UNL     1       0.370  -1.028   0.123  1.00  0.00     0.199 HD  
ATOM     21  H12 UNL     1       0.783  -1.696  -1.268  1.00  0.00     0.199 HD  
BRANCH  19  22
ATOM     22  C10 UNL     1       2.363  -0.773  -0.296  1.00  0.00     0.164 C   
BRANCH  22  23
ATOM     23  C11 UNL     1       2.729   0.480   0.454  1.00  0.00    -0.002 A   
ATOM     24  C12 UNL     1       3.671   1.386  -0.093  1.00  0.00     0.012 A   
ATOM     25  C16 UNL     1       2.134   0.776   1.692  1.00  0.00     0.045 A   
ATOM     26  C13 UNL     1       4.005   2.571   0.573  1.00  0.00     0.037 A   
ATOM     27  C15 UNL     1       2.484   1.952   2.323  1.00  0.00     0.109 A   
ATOM     28  C14 UNL     1       3.393   2.825   1.779  1.00  0.00     0.108 A   
ATOM     29  O2  UNL     1       1.993   2.387   3.513  1.00  0.00    -0.316 OA  
ATOM     30  O3  UNL     1       3.593   3.918   2.559  1.00  0.00    -0.316 OA  
ATOM     31  C17 UNL     1       2.732   3.619   3.679  1.00  0.00     0.337 C   
ENDBRANCH  22  23
ENDBRANCH  19  22
ENDBRANCH  18  19
BRANCH  18  32
ATOM     32  C18 UNL     1       1.041   0.523  -2.824  1.00  0.00     0.043 C   
ATOM     33  C19 UNL     1       0.452   1.648  -3.685  1.00  0.00     0.010 C   
ATOM     34  C22 UNL     1       1.118  -0.696  -3.764  1.00  0.00     0.010 C   
ATOM     35  C20 UNL     1       1.010   1.349  -5.067  1.00  0.00     0.001 C   
ATOM     36  C21 UNL     1       0.871  -0.162  -5.175  1.00  0.00     0.001 C   
ENDBRANCH  18  32
ENDBRANCH   3  18
TORSDOF 9
