REMARK SMILES CC(C)(C)[C@H]([NH2+]Cc1ccc2c(c1)OCO2)c1cn(-c2ccc(CCO)cc2)nn1
REMARK SMILES IDX 20 1 21 2 22 3 23 4 27 5 28 6 19 7 17 8 18 9 30 10 29 11
REMARK SMILES IDX 5 12 2 13 1 14 3 15 4 16 6 17 7 20 8 21 9 22 13 23 10 24
REMARK SMILES IDX 12 25 11 26 14 27 16 28 15 29 24 30 25 31 26 32
REMARK H PARENT 6 18 6 19 26 33
ROOT
ATOM     1   C16 UNL     1       0.152  -1.157   2.091  1.00  0.00     0.058 A   
ATOM     2   C17 UNL     1      -1.171  -1.575   2.276  1.00  0.00     0.026 A   
ATOM     3   C18 UNL     1      -1.826  -1.303   3.480  1.00  0.00     0.006 A   
ATOM     4   C19 UNL     1      -1.173  -0.618   4.512  1.00  0.00    -0.046 A   
ATOM     5   C22 UNL     1       0.154  -0.215   4.327  1.00  0.00     0.006 A   
ATOM     6   C23 UNL     1       0.816  -0.484   3.126  1.00  0.00     0.026 A   
ENDROOT
BRANCH   1   7
ATOM     7   N2  UNL     1       0.813  -1.363   0.856  1.00  0.00    -0.181 N   
ATOM     8   C14 UNL     1       1.299  -1.701  -1.249  1.00  0.00     0.128 A   
ATOM     9   C15 UNL     1       0.324  -1.931  -0.305  1.00  0.00     0.135 A   
ATOM     10  N4  UNL     1       2.369  -1.096  -0.653  1.00  0.00    -0.131 NA  
ATOM     11  N3  UNL     1       2.077  -0.918   0.625  1.00  0.00    -0.071 NA  
BRANCH   8  12
ATOM     12  C5  UNL     1       1.282  -1.868  -2.739  1.00  0.00     0.120 C   
BRANCH  12  13
ATOM     13  C2  UNL     1       2.070  -3.120  -3.257  1.00  0.00     0.010 C   
ATOM     14  C1  UNL     1       1.530  -4.400  -2.579  1.00  0.00     0.017 C   
ATOM     15  C3  UNL     1       1.853  -3.292  -4.779  1.00  0.00     0.017 C   
ATOM     16  C4  UNL     1       3.586  -3.032  -2.990  1.00  0.00     0.017 C   
ENDBRANCH  12  13
BRANCH  12  17
ATOM     17  N1  UNL     1       1.822  -0.593  -3.367  1.00  0.00     0.250 N   
ATOM     18  H11 UNL     1       2.344  -0.791  -4.224  1.00  0.00     0.199 HD  
ATOM     19  H12 UNL     1       2.516  -0.221  -2.698  1.00  0.00     0.199 HD  
BRANCH  17  20
ATOM     20  C6  UNL     1       0.827   0.486  -3.653  1.00  0.00     0.164 C   
BRANCH  20  21
ATOM     21  C7  UNL     1       0.184   1.070  -2.425  1.00  0.00    -0.002 A   
ATOM     22  C8  UNL     1       0.919   1.933  -1.576  1.00  0.00     0.012 A   
ATOM     23  C12 UNL     1      -1.131   0.717  -2.074  1.00  0.00     0.045 A   
ATOM     24  C9  UNL     1       0.365   2.419  -0.386  1.00  0.00     0.037 A   
ATOM     25  C11 UNL     1      -1.643   1.204  -0.888  1.00  0.00     0.109 A   
ATOM     26  C10 UNL     1      -0.916   2.030  -0.067  1.00  0.00     0.108 A   
ATOM     27  O1  UNL     1      -2.873   0.920  -0.382  1.00  0.00    -0.316 OA  
ATOM     28  O2  UNL     1      -1.599   2.382   1.053  1.00  0.00    -0.316 OA  
ATOM     29  C13 UNL     1      -2.848   1.689   0.845  1.00  0.00     0.337 C   
ENDBRANCH  20  21
ENDBRANCH  17  20
ENDBRANCH  12  17
ENDBRANCH   8  12
ENDBRANCH   1   7
BRANCH   4  30
ATOM     30  C20 UNL     1      -1.910  -0.291   5.791  1.00  0.00     0.063 C   
BRANCH  30  31
ATOM     31  C21 UNL     1      -2.703   1.012   5.694  1.00  0.00     0.161 C   
BRANCH  31  32
ATOM     32  O3  UNL     1      -3.853   0.840   4.868  1.00  0.00    -0.396 OA  
ATOM     33  H27 UNL     1      -4.392   1.644   4.968  1.00  0.00     0.210 HD  
ENDBRANCH  31  32
ENDBRANCH  30  31
ENDBRANCH   4  30
TORSDOF 9
