REMARK SMILES CC(C)[C@H]([NH2+]Cc1ccc2c(c1)OCO2)c1cn(Cc2ccc3c(ccn3C)c2)nn1
REMARK SMILES IDX 16 1 17 2 18 3 30 4 31 5 4 7 2 8 1 9 3 10 5 11 6 14 7 15
REMARK SMILES IDX 8 16 12 17 9 18 11 19 10 20 13 21 15 22 14 23 19 24 20 25
REMARK SMILES IDX 21 26 29 27 22 28 24 29 23 30 25 31 27 32 26 33 28 34
REMARK H PARENT 17 6 5 12 5 13
ROOT
ATOM     1   C13 UNL     1      -0.264   0.765  -2.094  1.00  0.00     0.127 A   
ATOM     2   C14 UNL     1      -0.741   1.850  -1.393  1.00  0.00     0.046 A   
ATOM     3   N2  UNL     1      -2.099   1.686  -1.417  1.00  0.00    -0.208 N   
ATOM     4   N4  UNL     1      -2.438   0.606  -2.149  1.00  0.00    -0.076 NA  
ATOM     5   N5  UNL     1      -1.321   0.035  -2.571  1.00  0.00    -0.132 NA  
ATOM     6   H18 UNL     1      -0.263   2.641  -0.832  1.00  0.00     0.083 HD  
ENDROOT
BRANCH   1   7
ATOM     7   C4  UNL     1       1.133   0.268  -2.272  1.00  0.00     0.117 C   
BRANCH   7   8
ATOM     8   C2  UNL     1       1.764   0.734  -3.611  1.00  0.00     0.037 C   
ATOM     9   C1  UNL     1       3.283   0.521  -3.622  1.00  0.00     0.014 C   
ATOM     10  C3  UNL     1       1.150   0.092  -4.860  1.00  0.00     0.014 C   
ENDBRANCH   7   8
BRANCH   7  11
ATOM     11  N1  UNL     1       1.200  -1.238  -2.151  1.00  0.00     0.249 N   
ATOM     12  H9  UNL     1       0.588  -1.621  -2.883  1.00  0.00     0.199 HD  
ATOM     13  H10 UNL     1       2.150  -1.566  -2.338  1.00  0.00     0.199 HD  
BRANCH  11  14
ATOM     14  C5  UNL     1       0.727  -1.831  -0.858  1.00  0.00     0.164 C   
BRANCH  14  15
ATOM     15  C6  UNL     1       1.401  -1.267   0.361  1.00  0.00    -0.002 A   
ATOM     16  C7  UNL     1       0.652  -0.511   1.296  1.00  0.00     0.012 A   
ATOM     17  C11 UNL     1       2.776  -1.463   0.577  1.00  0.00     0.045 A   
ATOM     18  C8  UNL     1       1.258   0.051   2.423  1.00  0.00     0.037 A   
ATOM     19  C10 UNL     1       3.344  -0.894   1.698  1.00  0.00     0.109 A   
ATOM     20  C9  UNL     1       2.608  -0.157   2.595  1.00  0.00     0.108 A   
ATOM     21  O1  UNL     1       4.654  -0.980   2.048  1.00  0.00    -0.316 OA  
ATOM     22  O2  UNL     1       3.362   0.312   3.622  1.00  0.00    -0.316 OA  
ATOM     23  C12 UNL     1       4.655  -0.237   3.289  1.00  0.00     0.337 C   
ENDBRANCH  14  15
ENDBRANCH  11  14
ENDBRANCH   7  11
ENDBRANCH   1   7
BRANCH   3  24
ATOM     24  C15 UNL     1      -3.099   2.418  -0.655  1.00  0.00     0.169 C   
BRANCH  24  25
ATOM     25  C16 UNL     1      -2.947   2.111   0.816  1.00  0.00    -0.028 A   
ATOM     26  C17 UNL     1      -2.350   3.037   1.681  1.00  0.00     0.007 A   
ATOM     27  C24 UNL     1      -3.354   0.859   1.315  1.00  0.00     0.015 A   
ATOM     28  C18 UNL     1      -2.134   2.740   3.031  1.00  0.00     0.025 A   
ATOM     29  C20 UNL     1      -3.136   0.535   2.668  1.00  0.00    -0.002 A   
ATOM     30  C19 UNL     1      -2.529   1.478   3.501  1.00  0.00     0.040 A   
ATOM     31  C21 UNL     1      -3.406  -0.615   3.457  1.00  0.00     0.025 A   
ATOM     32  N3  UNL     1      -2.446   0.909   4.755  1.00  0.00    -0.310 N   
ATOM     33  C22 UNL     1      -2.965  -0.359   4.735  1.00  0.00     0.075 A   
ATOM     34  C23 UNL     1      -1.903   1.557   5.929  1.00  0.00     0.136 C   
ENDBRANCH  24  25
ENDBRANCH   3  24
TORSDOF 7
