REMARK SMILES c1cc2c(cc1C[NH2+][C@H](c1cn(Cc3noc4c3CCC4)nn1)C1CCCCC1)OCO2
REMARK SMILES IDX 9 1 8 2 7 5 6 6 1 7 2 8 3 9 5 10 4 11 32 12 30 13 31 14
REMARK SMILES IDX 10 15 11 16 23 17 12 18 22 19 13 21 14 22 15 23 18 24 16 25
REMARK SMILES IDX 17 26 19 27 21 28 20 29 24 30 25 31 29 32 26 33 28 34 27 35
REMARK H PARENT 8 3 8 4 11 20
ROOT
ATOM     1   C8  UNL     1      -0.319  -1.113   1.549  1.00  0.00     0.117 C   
ENDROOT
BRANCH   1   2
ATOM     2   N1  UNL     1       1.137  -1.272   1.203  1.00  0.00     0.249 N   
ATOM     3   H6  UNL     1       1.752  -0.984   1.968  1.00  0.00     0.199 HD  
ATOM     4   H7  UNL     1       1.327  -0.625   0.422  1.00  0.00     0.199 HD  
BRANCH   2   5
ATOM     5   C7  UNL     1       1.540  -2.631   0.745  1.00  0.00     0.164 C   
BRANCH   5   6
ATOM     6   C6  UNL     1       2.992  -2.642   0.365  1.00  0.00    -0.002 A   
ATOM     7   C1  UNL     1       3.977  -3.021   1.308  1.00  0.00     0.012 A   
ATOM     8   C2  UNL     1       5.336  -2.985   0.979  1.00  0.00     0.037 A   
ATOM     9   C3  UNL     1       5.681  -2.565  -0.286  1.00  0.00     0.108 A   
ATOM     10  C5  UNL     1       3.385  -2.215  -0.916  1.00  0.00     0.045 A   
ATOM     11  C4  UNL     1       4.733  -2.191  -1.207  1.00  0.00     0.109 A   
ATOM     12  O3  UNL     1       6.944  -2.465  -0.773  1.00  0.00    -0.316 OA  
ATOM     13  O2  UNL     1       5.280  -1.806  -2.389  1.00  0.00    -0.316 OA  
ATOM     14  C24 UNL     1       6.688  -1.997  -2.115  1.00  0.00     0.337 C   
ENDBRANCH   5   6
ENDBRANCH   2   5
ENDBRANCH   1   2
BRANCH   1  15
ATOM     15  C9  UNL     1      -1.143  -0.991   0.305  1.00  0.00     0.127 A   
ATOM     16  C10 UNL     1      -2.498  -1.107   0.102  1.00  0.00     0.046 A   
ATOM     17  N5  UNL     1      -0.534  -0.706  -0.893  1.00  0.00    -0.132 NA  
ATOM     18  N2  UNL     1      -2.660  -0.828  -1.228  1.00  0.00    -0.206 N   
ATOM     19  N4  UNL     1      -1.468  -0.634  -1.827  1.00  0.00    -0.076 NA  
ATOM     20  H9  UNL     1      -3.339  -1.302   0.755  1.00  0.00     0.083 HD  
BRANCH  18  21
ATOM     21  C11 UNL     1      -3.901  -0.735  -1.978  1.00  0.00     0.193 C   
BRANCH  21  22
ATOM     22  C12 UNL     1      -4.489   0.617  -1.813  1.00  0.00     0.093 A   
ATOM     23  N3  UNL     1      -5.169   0.932  -0.684  1.00  0.00    -0.132 NA  
ATOM     24  C14 UNL     1      -4.464   1.707  -2.686  1.00  0.00     0.006 A   
ATOM     25  O1  UNL     1      -5.593   2.265  -0.840  1.00  0.00    -0.218 OA  
ATOM     26  C13 UNL     1      -5.154   2.671  -2.032  1.00  0.00     0.090 A   
ATOM     27  C15 UNL     1      -3.999   2.187  -3.994  1.00  0.00     0.040 C   
ATOM     28  C17 UNL     1      -5.304   3.960  -2.703  1.00  0.00     0.065 C   
ATOM     29  C16 UNL     1      -4.297   3.736  -3.894  1.00  0.00     0.012 C   
ENDBRANCH  21  22
ENDBRANCH  18  21
ENDBRANCH   1  15
BRANCH   1  30
ATOM     30  C18 UNL     1      -0.519   0.101   2.499  1.00  0.00     0.043 C   
ATOM     31  C19 UNL     1       0.043   1.426   1.945  1.00  0.00     0.010 C   
ATOM     32  C23 UNL     1       0.050  -0.174   3.905  1.00  0.00     0.010 C   
ATOM     33  C20 UNL     1      -0.209   2.590   2.903  1.00  0.00     0.001 C   
ATOM     34  C22 UNL     1      -0.206   0.996   4.854  1.00  0.00     0.001 C   
ATOM     35  C21 UNL     1       0.343   2.304   4.295  1.00  0.00     0.000 C   
ENDBRANCH   1  30
TORSDOF 7
