REMARK SMILES CCn1cc(CCn2cc([C@@H]([NH2+]Cc3ccc4c(c3)OCO4)C3CCCC3)nn2)cn1
REMARK SMILES IDX 8 1 9 2 10 3 28 4 29 5 7 7 6 8 5 9 3 10 4 11 31 12 30 13
REMARK SMILES IDX 2 14 1 15 11 16 12 17 13 20 14 21 15 22 19 23 16 24 18 25
REMARK SMILES IDX 17 26 20 27 22 28 21 29 23 30 24 31 27 32 25 33 26 34
REMARK H PARENT 9 6 12 18 12 19
ROOT
ATOM     1   N2  UNL     1      -0.922  -4.482  -1.340  1.00  0.00    -0.212 N   
ATOM     2   C7  UNL     1      -0.079  -3.461  -1.690  1.00  0.00     0.045 A   
ATOM     3   C8  UNL     1      -0.927  -2.472  -2.145  1.00  0.00     0.127 A   
ATOM     4   N4  UNL     1      -2.201  -2.978  -2.203  1.00  0.00    -0.132 NA  
ATOM     5   N5  UNL     1      -2.184  -4.211  -1.716  1.00  0.00    -0.076 NA  
ATOM     6   H11 UNL     1       0.973  -3.487  -1.446  1.00  0.00     0.083 HD  
ENDROOT
BRANCH   1   7
ATOM     7   C6  UNL     1      -0.644  -5.531  -0.374  1.00  0.00     0.139 C   
BRANCH   7   8
ATOM     8   C5  UNL     1      -1.149  -5.186   1.038  1.00  0.00     0.060 C   
BRANCH   8   9
ATOM     9   C4  UNL     1      -0.790  -3.797   1.468  1.00  0.00    -0.011 A   
ATOM     10  N1  UNL     1       0.183  -1.976   2.220  1.00  0.00    -0.233 N   
ATOM     11  C3  UNL     1       0.336  -3.332   2.112  1.00  0.00     0.101 A   
ATOM     12  N6  UNL     1      -0.880  -1.508   1.517  1.00  0.00    -0.190 NA  
ATOM     13  C23 UNL     1      -1.557  -2.630   1.245  1.00  0.00     0.136 A   
BRANCH  10  14
ATOM     14  C2  UNL     1       0.988  -1.073   3.024  1.00  0.00     0.128 C   
ATOM     15  C1  UNL     1       1.922  -0.211   2.194  1.00  0.00     0.027 C   
ENDBRANCH  10  14
ENDBRANCH   8   9
ENDBRANCH   7   8
ENDBRANCH   1   7
BRANCH   3  16
ATOM     16  C9  UNL     1      -0.701  -1.017  -2.410  1.00  0.00     0.117 C   
BRANCH  16  17
ATOM     17  N3  UNL     1      -1.189  -0.181  -1.251  1.00  0.00     0.249 N   
ATOM     18  H13 UNL     1      -0.916  -0.629  -0.352  1.00  0.00     0.199 HD  
ATOM     19  H14 UNL     1      -0.745   0.740  -1.241  1.00  0.00     0.199 HD  
BRANCH  17  20
ATOM     20  C10 UNL     1      -2.670   0.019  -1.193  1.00  0.00     0.164 C   
BRANCH  20  21
ATOM     21  C11 UNL     1      -3.026   1.302  -0.488  1.00  0.00    -0.002 A   
ATOM     22  C12 UNL     1      -3.696   2.334  -1.189  1.00  0.00     0.012 A   
ATOM     23  C16 UNL     1      -2.688   1.498   0.862  1.00  0.00     0.045 A   
ATOM     24  C13 UNL     1      -4.015   3.544  -0.562  1.00  0.00     0.037 A   
ATOM     25  C15 UNL     1      -3.006   2.705   1.448  1.00  0.00     0.109 A   
ATOM     26  C14 UNL     1      -3.651   3.700   0.756  1.00  0.00     0.108 A   
ATOM     27  O1  UNL     1      -2.727   3.060   2.731  1.00  0.00    -0.316 OA  
ATOM     28  O2  UNL     1      -3.869   4.804   1.517  1.00  0.00    -0.316 OA  
ATOM     29  C17 UNL     1      -3.300   4.387   2.777  1.00  0.00     0.337 C   
ENDBRANCH  20  21
ENDBRANCH  17  20
ENDBRANCH  16  17
BRANCH  16  30
ATOM     30  C18 UNL     1       0.757  -0.656  -2.768  1.00  0.00     0.043 C   
ATOM     31  C19 UNL     1       0.912   0.739  -3.391  1.00  0.00     0.010 C   
ATOM     32  C22 UNL     1       1.781  -0.683  -1.619  1.00  0.00     0.010 C   
ATOM     33  C20 UNL     1       2.387   1.047  -3.194  1.00  0.00     0.001 C   
ATOM     34  C21 UNL     1       2.644   0.567  -1.776  1.00  0.00     0.001 C   
ENDBRANCH  16  30
ENDBRANCH   3  16
TORSDOF 9
