REMARK SMILES COc1ccc(Cn2cc([C@@H]([NH2+]Cc3ccc4c(c3)OCO4)C3CCCCC3)nn2)cc1OC
REMARK SMILES IDX 8 1 9 2 10 3 29 4 30 5 7 7 6 8 3 9 4 10 32 11 5 12 31 13
REMARK SMILES IDX 2 14 1 15 33 16 34 17 11 18 12 19 13 22 14 23 15 24 19 25
REMARK SMILES IDX 16 26 18 27 17 28 20 29 22 30 21 31 23 32 24 33 28 34 25 35
REMARK SMILES IDX 27 36 26 37
REMARK H PARENT 9 6 12 20 12 21
ROOT
ATOM     1   N1  UNL     1      -0.722   1.649   2.013  1.00  0.00    -0.208 N   
ATOM     2   C7  UNL     1      -0.090   0.478   1.696  1.00  0.00     0.046 A   
ATOM     3   C8  UNL     1       1.019   0.882   0.985  1.00  0.00     0.127 A   
ATOM     4   N3  UNL     1       1.025   2.252   0.898  1.00  0.00    -0.132 NA  
ATOM     5   N4  UNL     1      -0.041   2.708   1.533  1.00  0.00    -0.076 NA  
ATOM     6   H8  UNL     1      -0.487  -0.489   1.973  1.00  0.00     0.083 HD  
ENDROOT
BRANCH   1   7
ATOM     7   C6  UNL     1      -1.949   1.837   2.769  1.00  0.00     0.169 C   
BRANCH   7   8
ATOM     8   C5  UNL     1      -3.152   1.371   1.990  1.00  0.00    -0.026 A   
ATOM     9   C2  UNL     1      -5.396   0.489   0.511  1.00  0.00     0.105 A   
ATOM     10  C3  UNL     1      -4.911  -0.267   1.580  1.00  0.00     0.036 A   
ATOM     11  C25 UNL     1      -4.760   1.700   0.205  1.00  0.00     0.105 A   
ATOM     12  C4  UNL     1      -3.801   0.171   2.316  1.00  0.00     0.008 A   
ATOM     13  C24 UNL     1      -3.638   2.130   0.917  1.00  0.00     0.041 A   
BRANCH   9  14
ATOM     14  O1  UNL     1      -6.471   0.158  -0.270  1.00  0.00    -0.347 OA  
ATOM     15  C1  UNL     1      -7.054  -1.123  -0.065  1.00  0.00     0.203 C   
ENDBRANCH   9  14
BRANCH  11  16
ATOM     16  O4  UNL     1      -5.183   2.455  -0.861  1.00  0.00    -0.347 OA  
ATOM     17  C26 UNL     1      -6.117   3.443  -0.419  1.00  0.00     0.203 C   
ENDBRANCH  11  16
ENDBRANCH   7   8
ENDBRANCH   1   7
BRANCH   3  18
ATOM     18  C9  UNL     1       2.077   0.105   0.266  1.00  0.00     0.117 C   
BRANCH  18  19
ATOM     19  N2  UNL     1       2.364   0.833  -1.036  1.00  0.00     0.249 N   
ATOM     20  H10 UNL     1       1.747   1.663  -1.039  1.00  0.00     0.199 HD  
ATOM     21  H11 UNL     1       3.306   1.240  -1.023  1.00  0.00     0.199 HD  
BRANCH  19  22
ATOM     22  C10 UNL     1       2.126   0.079  -2.294  1.00  0.00     0.164 C   
BRANCH  22  23
ATOM     23  C11 UNL     1       0.685  -0.309  -2.488  1.00  0.00    -0.002 A   
ATOM     24  C12 UNL     1       0.291  -1.665  -2.398  1.00  0.00     0.012 A   
ATOM     25  C16 UNL     1      -0.284   0.677  -2.749  1.00  0.00     0.045 A   
ATOM     26  C13 UNL     1      -1.051  -2.036  -2.541  1.00  0.00     0.037 A   
ATOM     27  C15 UNL     1      -1.597   0.276  -2.889  1.00  0.00     0.109 A   
ATOM     28  C14 UNL     1      -1.972  -1.041  -2.778  1.00  0.00     0.108 A   
ATOM     29  O2  UNL     1      -2.649   1.095  -3.143  1.00  0.00    -0.316 OA  
ATOM     30  O3  UNL     1      -3.308  -1.216  -2.947  1.00  0.00    -0.316 OA  
ATOM     31  C17 UNL     1      -3.732   0.140  -3.218  1.00  0.00     0.337 C   
ENDBRANCH  22  23
ENDBRANCH  19  22
ENDBRANCH  18  19
BRANCH  18  32
ATOM     32  C18 UNL     1       3.393  -0.054   1.079  1.00  0.00     0.043 C   
ATOM     33  C19 UNL     1       4.465  -0.829   0.281  1.00  0.00     0.010 C   
ATOM     34  C23 UNL     1       3.130  -0.771   2.423  1.00  0.00     0.010 C   
ATOM     35  C20 UNL     1       5.737  -1.075   1.090  1.00  0.00     0.001 C   
ATOM     36  C22 UNL     1       4.409  -1.020   3.218  1.00  0.00     0.001 C   
ATOM     37  C21 UNL     1       5.439  -1.787   2.401  1.00  0.00     0.000 C   
ENDBRANCH  18  32
ENDBRANCH   3  18
TORSDOF 9
