REMARK SMILES CC(C)[C@H]([NH2+]Cc1ccc2c(c1)OCO2)c1cn(Cc2cnoc2C2CC2)nn1
REMARK SMILES IDX 16 1 17 2 18 3 28 4 29 5 4 7 2 8 1 9 3 10 5 11 6 14 7 15
REMARK SMILES IDX 8 16 12 17 9 18 11 19 10 20 13 21 15 22 14 23 19 24 20 25
REMARK SMILES IDX 21 26 24 27 22 28 23 29 25 30 26 31 27 32
REMARK H PARENT 17 6 5 12 5 13
ROOT
ATOM     1   C13 UNL     1       1.563   0.997  -1.274  1.00  0.00     0.127 A   
ATOM     2   C14 UNL     1       0.878   0.119  -2.085  1.00  0.00     0.046 A   
ATOM     3   N2  UNL     1       1.827  -0.326  -2.965  1.00  0.00    -0.208 N   
ATOM     4   N4  UNL     1       3.020   0.248  -2.715  1.00  0.00    -0.076 NA  
ATOM     5   N5  UNL     1       2.870   1.064  -1.686  1.00  0.00    -0.132 NA  
ATOM     6   H18 UNL     1      -0.145  -0.230  -2.108  1.00  0.00     0.083 HD  
ENDROOT
BRANCH   1   7
ATOM     7   C4  UNL     1       1.124   1.792  -0.084  1.00  0.00     0.117 C   
BRANCH   7   8
ATOM     8   C2  UNL     1       0.384   3.094  -0.491  1.00  0.00     0.037 C   
ATOM     9   C1  UNL     1       1.282   4.138  -1.164  1.00  0.00     0.014 C   
ATOM     10  C3  UNL     1      -0.343   3.727   0.702  1.00  0.00     0.014 C   
ENDBRANCH   7   8
BRANCH   7  11
ATOM     11  N1  UNL     1       2.307   2.118   0.797  1.00  0.00     0.249 N   
ATOM     12  H9  UNL     1       3.064   2.411   0.164  1.00  0.00     0.199 HD  
ATOM     13  H10 UNL     1       2.103   2.909   1.410  1.00  0.00     0.199 HD  
BRANCH  11  14
ATOM     14  C5  UNL     1       2.838   0.991   1.622  1.00  0.00     0.164 C   
BRANCH  14  15
ATOM     15  C6  UNL     1       1.910   0.607   2.741  1.00  0.00    -0.002 A   
ATOM     16  C7  UNL     1       1.222  -0.629   2.709  1.00  0.00     0.012 A   
ATOM     17  C11 UNL     1       1.702   1.486   3.819  1.00  0.00     0.045 A   
ATOM     18  C8  UNL     1       0.332  -0.983   3.729  1.00  0.00     0.037 A   
ATOM     19  C10 UNL     1       0.815   1.108   4.804  1.00  0.00     0.109 A   
ATOM     20  C9  UNL     1       0.146  -0.090   4.760  1.00  0.00     0.108 A   
ATOM     21  O1  UNL     1       0.500   1.841   5.905  1.00  0.00    -0.316 OA  
ATOM     22  O2  UNL     1      -0.675  -0.265   5.827  1.00  0.00    -0.316 OA  
ATOM     23  C12 UNL     1      -0.433   0.954   6.566  1.00  0.00     0.337 C   
ENDBRANCH  14  15
ENDBRANCH  11  14
ENDBRANCH   7  11
ENDBRANCH   1   7
BRANCH   3  24
ATOM     24  C15 UNL     1       1.687  -1.320  -4.019  1.00  0.00     0.173 C   
BRANCH  24  25
ATOM     25  C16 UNL     1       1.747  -2.685  -3.445  1.00  0.00     0.021 A   
ATOM     26  C17 UNL     1       2.823  -3.276  -2.740  1.00  0.00     0.149 A   
ATOM     27  C18 UNL     1       0.798  -3.686  -3.470  1.00  0.00     0.094 A   
ATOM     28  N3  UNL     1       2.542  -4.514  -2.332  1.00  0.00    -0.137 NA  
ATOM     29  O3  UNL     1       1.270  -4.778  -2.811  1.00  0.00    -0.218 OA  
BRANCH  27  30
ATOM     30  C19 UNL     1      -0.598  -3.616  -4.142  1.00  0.00     0.046 C   
ATOM     31  C20 UNL     1      -1.738  -4.393  -3.541  1.00  0.00     0.011 C   
ATOM     32  C21 UNL     1      -1.713  -2.897  -3.426  1.00  0.00     0.011 C   
ENDBRANCH  27  30
ENDBRANCH  24  25
ENDBRANCH   3  24
TORSDOF 8
