REMARK SMILES CCc1cc(-n2cc([C@H](CC(C)C)[NH2+]Cc3ccc4c(c3)OCO4)nn2)ccc1O
REMARK SMILES IDX 6 1 7 2 8 3 25 4 26 5 5 6 3 7 4 8 29 9 28 10 27 11 2 12 1 13
REMARK SMILES IDX 30 14 9 16 10 17 11 18 12 19 13 20 14 21 15 24 16 25 17 26
REMARK SMILES IDX 21 27 18 28 20 29 19 30 22 31 24 32 23 33
REMARK H PARENT 30 15 14 22 14 23
ROOT
ATOM     1   N1  UNL     1      -0.814  -0.984  -1.678  1.00  0.00    -0.181 N   
ATOM     2   C6  UNL     1      -0.239  -0.033  -0.856  1.00  0.00     0.135 A   
ATOM     3   C7  UNL     1       1.064  -0.446  -0.695  1.00  0.00     0.127 A   
ATOM     4   N3  UNL     1       1.284  -1.552  -1.465  1.00  0.00    -0.131 NA  
ATOM     5   N4  UNL     1       0.146  -1.865  -2.063  1.00  0.00    -0.071 NA  
ENDROOT
BRANCH   1   6
ATOM     6   C5  UNL     1      -2.171  -1.130  -2.059  1.00  0.00     0.058 A   
ATOM     7   C3  UNL     1      -4.489  -0.370  -2.005  1.00  0.00    -0.016 A   
ATOM     8   C4  UNL     1      -3.140  -0.201  -1.648  1.00  0.00     0.032 A   
ATOM     9   C23 UNL     1      -4.850  -1.489  -2.764  1.00  0.00     0.075 A   
ATOM     10  C22 UNL     1      -3.896  -2.413  -3.183  1.00  0.00     0.035 A   
ATOM     11  C21 UNL     1      -2.555  -2.233  -2.834  1.00  0.00     0.028 A   
BRANCH   7  12
ATOM     12  C2  UNL     1      -5.519   0.633  -1.541  1.00  0.00     0.035 C   
ATOM     13  C1  UNL     1      -6.106   0.257  -0.190  1.00  0.00     0.009 C   
ENDBRANCH   7  12
BRANCH   9  14
ATOM     14  O3  UNL     1      -6.165  -1.667  -3.085  1.00  0.00    -0.361 OA  
ATOM     15  H29 UNL     1      -6.258  -2.468  -3.627  1.00  0.00     0.218 HD  
ENDBRANCH   9  14
ENDBRANCH   1   6
BRANCH   3  16
ATOM     16  C8  UNL     1       2.144   0.041   0.216  1.00  0.00     0.114 C   
BRANCH  16  17
ATOM     17  C9  UNL     1       3.188   0.862  -0.566  1.00  0.00     0.064 C   
BRANCH  17  18
ATOM     18  C10 UNL     1       4.303   1.529   0.269  1.00  0.00    -0.012 C   
ATOM     19  C11 UNL     1       5.229   2.325  -0.657  1.00  0.00     0.007 C   
ATOM     20  C12 UNL     1       3.754   2.448   1.360  1.00  0.00     0.007 C   
ENDBRANCH  17  18
ENDBRANCH  16  17
BRANCH  16  21
ATOM     21  N2  UNL     1       2.822  -1.140   0.877  1.00  0.00     0.249 N   
ATOM     22  H18 UNL     1       3.808  -0.942   1.062  1.00  0.00     0.199 HD  
ATOM     23  H19 UNL     1       2.813  -1.900   0.178  1.00  0.00     0.199 HD  
BRANCH  21  24
ATOM     24  C13 UNL     1       2.195  -1.652   2.134  1.00  0.00     0.164 C   
BRANCH  24  25
ATOM     25  C14 UNL     1       0.841  -2.272   1.930  1.00  0.00    -0.002 A   
ATOM     26  C15 UNL     1       0.726  -3.545   1.321  1.00  0.00     0.012 A   
ATOM     27  C19 UNL     1      -0.325  -1.565   2.277  1.00  0.00     0.045 A   
ATOM     28  C16 UNL     1      -0.528  -4.097   1.037  1.00  0.00     0.037 A   
ATOM     29  C18 UNL     1      -1.545  -2.132   1.969  1.00  0.00     0.109 A   
ATOM     30  C17 UNL     1      -1.644  -3.361   1.365  1.00  0.00     0.108 A   
ATOM     31  O1  UNL     1      -2.759  -1.559   2.184  1.00  0.00    -0.316 OA  
ATOM     32  O2  UNL     1      -2.931  -3.724   1.136  1.00  0.00    -0.316 OA  
ATOM     33  C20 UNL     1      -3.640  -2.589   1.676  1.00  0.00     0.337 C   
ENDBRANCH  24  25
ENDBRANCH  21  24
ENDBRANCH  16  21
ENDBRANCH   3  16
TORSDOF 9
