REMARK SMILES CN(C)c1cccc(CCn2cc([C@@H]([NH2+]Cc3ccc4c(c3)OCO4)C3CCCC3)nn2)c1
REMARK SMILES IDX 11 1 12 2 13 3 31 4 32 5 10 7 9 8 8 9 4 10 5 11 33 12 6 13
REMARK SMILES IDX 7 14 2 15 1 16 3 17 14 18 15 19 16 22 17 23 18 24 22 25
REMARK SMILES IDX 19 26 21 27 20 28 23 29 25 30 24 31 26 32 27 33 30 34 28 35
REMARK SMILES IDX 29 36
REMARK H PARENT 12 6 15 20 15 21
ROOT
ATOM     1   N2  UNL     1      -3.385  -0.375   0.637  1.00  0.00    -0.212 N   
ATOM     2   C10 UNL     1      -2.524   0.562   1.138  1.00  0.00     0.045 A   
ATOM     3   C11 UNL     1      -1.903   1.068   0.019  1.00  0.00     0.127 A   
ATOM     4   N4  UNL     1      -2.442   0.484  -1.099  1.00  0.00    -0.132 NA  
ATOM     5   N5  UNL     1      -3.352  -0.394  -0.706  1.00  0.00    -0.076 NA  
ATOM     6   H14 UNL     1      -2.379   0.706   2.199  1.00  0.00     0.083 HD  
ENDROOT
BRANCH   1   7
ATOM     7   C9  UNL     1      -4.135  -1.371   1.375  1.00  0.00     0.139 C   
BRANCH   7   8
ATOM     8   C8  UNL     1      -3.424  -2.727   1.420  1.00  0.00     0.057 C   
BRANCH   8   9
ATOM     9   C7  UNL     1      -2.063  -2.652   2.077  1.00  0.00    -0.045 A   
ATOM     10  C3  UNL     1       0.388  -2.431   1.848  1.00  0.00     0.028 A   
ATOM     11  C4  UNL     1       0.456  -2.357   3.247  1.00  0.00     0.023 A   
ATOM     12  C26 UNL     1      -0.898  -2.573   1.289  1.00  0.00     0.027 A   
ATOM     13  C5  UNL     1      -0.690  -2.450   4.046  1.00  0.00     0.002 A   
ATOM     14  C6  UNL     1      -1.945  -2.598   3.466  1.00  0.00     0.004 A   
BRANCH  10  15
ATOM     15  N1  UNL     1       1.520  -2.330   1.003  1.00  0.00    -0.337 N   
ATOM     16  C1  UNL     1       2.809  -2.046   1.651  1.00  0.00     0.129 C   
ATOM     17  C2  UNL     1       1.609  -3.460   0.053  1.00  0.00     0.129 C   
ENDBRANCH  10  15
ENDBRANCH   8   9
ENDBRANCH   7   8
ENDBRANCH   1   7
BRANCH   3  18
ATOM     18  C12 UNL     1      -0.740   1.993  -0.118  1.00  0.00     0.117 C   
BRANCH  18  19
ATOM     19  N3  UNL     1       0.183   1.491  -1.194  1.00  0.00     0.249 N   
ATOM     20  H16 UNL     1      -0.409   1.233  -1.997  1.00  0.00     0.199 HD  
ATOM     21  H17 UNL     1       0.825   2.214  -1.530  1.00  0.00     0.199 HD  
BRANCH  19  22
ATOM     22  C13 UNL     1       0.953   0.264  -0.833  1.00  0.00     0.164 C   
BRANCH  22  23
ATOM     23  C14 UNL     1       1.868  -0.129  -1.960  1.00  0.00    -0.002 A   
ATOM     24  C15 UNL     1       3.127   0.499  -2.115  1.00  0.00     0.012 A   
ATOM     25  C19 UNL     1       1.452  -1.091  -2.897  1.00  0.00     0.045 A   
ATOM     26  C16 UNL     1       3.964   0.172  -3.188  1.00  0.00     0.037 A   
ATOM     27  C18 UNL     1       2.306  -1.399  -3.934  1.00  0.00     0.109 A   
ATOM     28  C17 UNL     1       3.524  -0.780  -4.081  1.00  0.00     0.108 A   
ATOM     29  O1  UNL     1       2.067  -2.314  -4.910  1.00  0.00    -0.316 OA  
ATOM     30  O2  UNL     1       4.202  -1.221  -5.173  1.00  0.00    -0.316 OA  
ATOM     31  C20 UNL     1       3.276  -2.198  -5.696  1.00  0.00     0.337 C   
ENDBRANCH  22  23
ENDBRANCH  19  22
ENDBRANCH  18  19
BRANCH  18  32
ATOM     32  C21 UNL     1      -1.188   3.439  -0.400  1.00  0.00     0.043 C   
ATOM     33  C22 UNL     1      -0.068   4.481  -0.324  1.00  0.00     0.010 C   
ATOM     34  C25 UNL     1      -1.833   3.709  -1.768  1.00  0.00     0.010 C   
ATOM     35  C23 UNL     1      -0.728   5.717  -0.916  1.00  0.00     0.001 C   
ATOM     36  C24 UNL     1      -1.550   5.181  -2.082  1.00  0.00     0.001 C   
ENDBRANCH  18  32
ENDBRANCH   3  18
TORSDOF 9
