REMARK SMILES CC(C)[C@H]([NH2+]Cc1ccc2c(c1)OCO2)c1cn(Cc2cc3ccccc3[nH]2)nn1
REMARK SMILES IDX 16 1 17 2 18 3 29 4 30 5 4 7 2 8 1 9 3 10 5 11 6 14 7 15
REMARK SMILES IDX 8 16 12 17 9 18 11 19 10 20 13 21 15 22 14 23 19 24 20 25
REMARK SMILES IDX 21 26 28 27 22 28 27 29 23 30 26 31 24 32 25 33
REMARK H PARENT 17 6 5 12 5 13 28 34
ROOT
ATOM     1   C13 UNL     1      -1.815  -1.100   0.943  1.00  0.00     0.127 A   
ATOM     2   C14 UNL     1      -2.997  -0.451   0.664  1.00  0.00     0.046 A   
ATOM     3   N2  UNL     1      -2.819   0.800   1.189  1.00  0.00    -0.206 N   
ATOM     4   N4  UNL     1      -1.599   0.918   1.750  1.00  0.00    -0.076 NA  
ATOM     5   N5  UNL     1      -0.978  -0.242   1.612  1.00  0.00    -0.132 NA  
ATOM     6   H18 UNL     1      -3.900  -0.734   0.141  1.00  0.00     0.083 HD  
ENDROOT
BRANCH   1   7
ATOM     7   C4  UNL     1      -1.325  -2.463   0.573  1.00  0.00     0.117 C   
BRANCH   7   8
ATOM     8   C2  UNL     1      -1.627  -3.557   1.629  1.00  0.00     0.037 C   
ATOM     9   C1  UNL     1      -1.010  -3.290   3.007  1.00  0.00     0.014 C   
ATOM     10  C3  UNL     1      -3.134  -3.800   1.776  1.00  0.00     0.014 C   
ENDBRANCH   7   8
BRANCH   7  11
ATOM     11  N1  UNL     1       0.165  -2.424   0.338  1.00  0.00     0.249 N   
ATOM     12  H9  UNL     1       0.580  -3.360   0.387  1.00  0.00     0.199 HD  
ATOM     13  H10 UNL     1       0.574  -1.881   1.113  1.00  0.00     0.199 HD  
BRANCH  11  14
ATOM     14  C5  UNL     1       0.592  -1.765  -0.928  1.00  0.00     0.164 C   
BRANCH  14  15
ATOM     15  C6  UNL     1       2.091  -1.713  -1.012  1.00  0.00    -0.002 A   
ATOM     16  C7  UNL     1       2.808  -2.722  -1.697  1.00  0.00     0.012 A   
ATOM     17  C11 UNL     1       2.792  -0.683  -0.360  1.00  0.00     0.045 A   
ATOM     18  C8  UNL     1       4.207  -2.702  -1.743  1.00  0.00     0.037 A   
ATOM     19  C10 UNL     1       4.170  -0.694  -0.425  1.00  0.00     0.109 A   
ATOM     20  C9  UNL     1       4.858  -1.674  -1.097  1.00  0.00     0.108 A   
ATOM     21  O1  UNL     1       4.995   0.222   0.147  1.00  0.00    -0.316 OA  
ATOM     22  O2  UNL     1       6.203  -1.498  -1.035  1.00  0.00    -0.316 OA  
ATOM     23  C12 UNL     1       6.287  -0.277  -0.269  1.00  0.00     0.337 C   
ENDBRANCH  14  15
ENDBRANCH  11  14
ENDBRANCH   7  11
ENDBRANCH   1   7
BRANCH   3  24
ATOM     24  C15 UNL     1      -3.720   1.940   1.121  1.00  0.00     0.185 C   
BRANCH  24  25
ATOM     25  C16 UNL     1      -3.547   2.648  -0.179  1.00  0.00     0.027 A   
ATOM     26  C17 UNL     1      -4.337   2.668  -1.312  1.00  0.00     0.031 A   
ATOM     27  N3  UNL     1      -2.456   3.450  -0.428  1.00  0.00    -0.316 N   
ATOM     28  C18 UNL     1      -3.689   3.476  -2.285  1.00  0.00    -0.003 A   
ATOM     29  C23 UNL     1      -2.510   3.947  -1.710  1.00  0.00     0.037 A   
ATOM     30  C19 UNL     1      -3.997   3.853  -3.607  1.00  0.00     0.010 A   
ATOM     31  C22 UNL     1      -1.616   4.779  -2.393  1.00  0.00     0.024 A   
ATOM     32  C20 UNL     1      -3.113   4.683  -4.305  1.00  0.00     0.001 A   
ATOM     33  C21 UNL     1      -1.941   5.138  -3.705  1.00  0.00     0.002 A   
ATOM     34  H26 UNL     1      -1.704   3.640   0.223  1.00  0.00     0.153 HD  
ENDBRANCH  24  25
ENDBRANCH   3  24
TORSDOF 7
