REMARK SMILES CC(C)n1cc(Cn2cc([C@@H]([NH2+]Cc3ccc4c(c3)OCO4)C3CCCCC3)nn2)cn1
REMARK SMILES IDX 8 1 9 2 10 3 29 4 30 5 7 7 6 8 4 9 5 10 32 11 31 12 2 13
REMARK SMILES IDX 1 14 3 15 11 16 12 17 13 20 14 21 15 22 19 23 16 24 18 25
REMARK SMILES IDX 17 26 20 27 22 28 21 29 23 30 24 31 28 32 25 33 27 34 26 35
REMARK H PARENT 9 6 12 18 12 19
ROOT
ATOM     1   N2  UNL     1      -1.208   1.480  -1.904  1.00  0.00    -0.208 N   
ATOM     2   C7  UNL     1      -0.719   1.403  -0.627  1.00  0.00     0.046 A   
ATOM     3   C8  UNL     1       0.492   0.764  -0.773  1.00  0.00     0.127 A   
ATOM     4   N4  UNL     1       0.705   0.499  -2.102  1.00  0.00    -0.132 NA  
ATOM     5   N5  UNL     1      -0.339   0.941  -2.783  1.00  0.00    -0.076 NA  
ATOM     6   H11 UNL     1      -1.266   1.777   0.228  1.00  0.00     0.083 HD  
ENDROOT
BRANCH   1   7
ATOM     7   C6  UNL     1      -2.478   2.033  -2.349  1.00  0.00     0.172 C   
BRANCH   7   8
ATOM     8   C5  UNL     1      -3.543   1.000  -2.279  1.00  0.00     0.007 A   
ATOM     9   N1  UNL     1      -5.042  -0.549  -2.750  1.00  0.00    -0.230 N   
ATOM     10  C4  UNL     1      -4.103   0.273  -3.312  1.00  0.00     0.103 A   
ATOM     11  N6  UNL     1      -5.108  -0.422  -1.410  1.00  0.00    -0.190 NA  
ATOM     12  C24 UNL     1      -4.227   0.538  -1.132  1.00  0.00     0.138 A   
BRANCH   9  13
ATOM     13  C2  UNL     1      -5.925  -1.491  -3.432  1.00  0.00     0.091 C   
ATOM     14  C1  UNL     1      -5.135  -2.571  -4.169  1.00  0.00     0.030 C   
ATOM     15  C3  UNL     1      -6.892  -0.768  -4.369  1.00  0.00     0.030 C   
ENDBRANCH   9  13
ENDBRANCH   7   8
ENDBRANCH   1   7
BRANCH   3  16
ATOM     16  C9  UNL     1       1.503   0.320   0.237  1.00  0.00     0.117 C   
BRANCH  16  17
ATOM     17  N3  UNL     1       2.269  -0.872  -0.286  1.00  0.00     0.249 N   
ATOM     18  H13 UNL     1       3.159  -0.986   0.204  1.00  0.00     0.199 HD  
ATOM     19  H14 UNL     1       2.493  -0.657  -1.269  1.00  0.00     0.199 HD  
BRANCH  17  20
ATOM     20  C10 UNL     1       1.536  -2.174  -0.283  1.00  0.00     0.164 C   
BRANCH  20  21
ATOM     21  C11 UNL     1       1.255  -2.686   1.104  1.00  0.00    -0.002 A   
ATOM     22  C12 UNL     1      -0.081  -2.820   1.554  1.00  0.00     0.012 A   
ATOM     23  C16 UNL     1       2.311  -3.023   1.968  1.00  0.00     0.045 A   
ATOM     24  C13 UNL     1      -0.363  -3.273   2.847  1.00  0.00     0.037 A   
ATOM     25  C15 UNL     1       1.998  -3.463   3.238  1.00  0.00     0.109 A   
ATOM     26  C14 UNL     1       0.700  -3.585   3.666  1.00  0.00     0.108 A   
ATOM     27  O1  UNL     1       2.896  -3.817   4.194  1.00  0.00    -0.316 OA  
ATOM     28  O2  UNL     1       0.616  -4.035   4.945  1.00  0.00    -0.316 OA  
ATOM     29  C17 UNL     1       2.012  -4.219   5.265  1.00  0.00     0.337 C   
ENDBRANCH  20  21
ENDBRANCH  17  20
ENDBRANCH  16  17
BRANCH  16  30
ATOM     30  C18 UNL     1       2.481   1.463   0.625  1.00  0.00     0.043 C   
ATOM     31  C19 UNL     1       3.281   1.116   1.898  1.00  0.00     0.010 C   
ATOM     32  C23 UNL     1       3.436   1.885  -0.509  1.00  0.00     0.010 C   
ATOM     33  C20 UNL     1       4.199   2.262   2.319  1.00  0.00     0.001 C   
ATOM     34  C22 UNL     1       4.353   3.030  -0.076  1.00  0.00     0.001 C   
ATOM     35  C21 UNL     1       5.132   2.681   1.187  1.00  0.00     0.000 C   
ENDBRANCH  16  30
ENDBRANCH   3  16
TORSDOF 8
