REMARK SMILES CC(C)[C@H]([NH2+]Cc1ccc2c(c1)OCO2)c1cn(C(=O)c2ccc(O)cc2)nn1
REMARK SMILES IDX 16 1 17 2 18 3 28 4 29 5 4 6 2 7 1 8 3 9 5 10 6 13 7 14 8 15
REMARK SMILES IDX 12 16 9 17 11 18 10 19 13 20 15 21 14 22 19 23 20 24 21 25
REMARK SMILES IDX 22 26 27 27 23 28 26 29 24 30 25 31
REMARK H PARENT 5 11 5 12 25 32
ROOT
ATOM     1   C13 UNL     1       1.117   0.879  -0.721  1.00  0.00     0.128 A   
ATOM     2   C14 UNL     1      -0.142   1.222  -0.290  1.00  0.00     0.139 A   
ATOM     3   N2  UNL     1      -0.769   0.016  -0.020  1.00  0.00    -0.143 N   
ATOM     4   N3  UNL     1       0.073  -0.998  -0.340  1.00  0.00    -0.068 NA  
ATOM     5   N4  UNL     1       1.217  -0.486  -0.763  1.00  0.00    -0.131 NA  
ENDROOT
BRANCH   1   6
ATOM     6   C4  UNL     1       2.323   1.719  -1.008  1.00  0.00     0.117 C   
BRANCH   6   7
ATOM     7   C2  UNL     1       2.484   2.020  -2.522  1.00  0.00     0.037 C   
ATOM     8   C1  UNL     1       3.513   3.131  -2.768  1.00  0.00     0.014 C   
ATOM     9   C3  UNL     1       2.832   0.794  -3.376  1.00  0.00     0.014 C   
ENDBRANCH   6   7
BRANCH   6  10
ATOM     10  N1  UNL     1       3.564   1.040  -0.464  1.00  0.00     0.249 N   
ATOM     11  H9  UNL     1       3.390   0.025  -0.545  1.00  0.00     0.199 HD  
ATOM     12  H10 UNL     1       4.377   1.234  -1.058  1.00  0.00     0.199 HD  
BRANCH  10  13
ATOM     13  C5  UNL     1       3.923   1.337   0.958  1.00  0.00     0.164 C   
BRANCH  13  14
ATOM     14  C6  UNL     1       2.873   0.923   1.951  1.00  0.00    -0.002 A   
ATOM     15  C7  UNL     1       2.666  -0.447   2.245  1.00  0.00     0.012 A   
ATOM     16  C11 UNL     1       2.033   1.888   2.537  1.00  0.00     0.045 A   
ATOM     17  C8  UNL     1       1.617  -0.854   3.080  1.00  0.00     0.037 A   
ATOM     18  C10 UNL     1       1.009   1.452   3.351  1.00  0.00     0.109 A   
ATOM     19  C9  UNL     1       0.802   0.120   3.610  1.00  0.00     0.108 A   
ATOM     20  O1  UNL     1       0.087   2.248   3.955  1.00  0.00    -0.316 OA  
ATOM     21  O2  UNL     1      -0.278  -0.091   4.407  1.00  0.00    -0.316 OA  
ATOM     22  C12 UNL     1      -0.710   1.265   4.654  1.00  0.00     0.337 C   
ENDBRANCH  13  14
ENDBRANCH  10  13
ENDBRANCH   6  10
ENDBRANCH   1   6
BRANCH   3  23
ATOM     23  C15 UNL     1      -2.030  -0.192   0.564  1.00  0.00     0.271 C   
ATOM     24  O3  UNL     1      -2.649   0.830   0.869  1.00  0.00    -0.269 OA  
BRANCH  23  25
ATOM     25  C16 UNL     1      -2.648  -1.512   0.869  1.00  0.00     0.040 A   
ATOM     26  C17 UNL     1      -3.571  -1.576   1.929  1.00  0.00     0.016 A   
ATOM     27  C21 UNL     1      -2.374  -2.671   0.131  1.00  0.00     0.016 A   
ATOM     28  C18 UNL     1      -4.189  -2.783   2.265  1.00  0.00     0.034 A   
ATOM     29  C20 UNL     1      -2.989  -3.878   0.472  1.00  0.00     0.034 A   
ATOM     30  C19 UNL     1      -3.887  -3.927   1.534  1.00  0.00     0.071 A   
BRANCH  30  31
ATOM     31  O4  UNL     1      -4.459  -5.128   1.822  1.00  0.00    -0.361 OA  
ATOM     32  H21 UNL     1      -5.091  -5.016   2.552  1.00  0.00     0.218 HD  
ENDBRANCH  30  31
ENDBRANCH  23  25
ENDBRANCH   3  23
TORSDOF 8
