REMARK SMILES COc1cccc(Cn2cc([C@@H]([NH2+]Cc3ccc4c(c3)OCO4)C(C)(C)C)nn2)c1O
REMARK SMILES IDX 9 1 10 2 11 3 28 4 29 5 8 7 7 8 3 9 4 10 30 11 5 12 6 13
REMARK SMILES IDX 2 14 1 15 31 16 12 18 13 19 14 22 15 23 16 24 20 25 17 26
REMARK SMILES IDX 19 27 18 28 21 29 23 30 22 31 24 32 25 33 26 34 27 35
REMARK H PARENT 10 6 31 17 13 20 13 21
ROOT
ATOM     1   N1  UNL     1       0.617  -2.745  -1.336  1.00  0.00    -0.208 N   
ATOM     2   C8  UNL     1       0.176  -2.176  -0.174  1.00  0.00     0.046 A   
ATOM     3   C9  UNL     1      -1.181  -2.048  -0.358  1.00  0.00     0.127 A   
ATOM     4   N3  UNL     1      -1.524  -2.583  -1.573  1.00  0.00    -0.132 NA  
ATOM     5   N4  UNL     1      -0.418  -3.014  -2.159  1.00  0.00    -0.076 NA  
ATOM     6   H9  UNL     1       0.856  -1.866   0.608  1.00  0.00     0.083 HD  
ENDROOT
BRANCH   1   7
ATOM     7   C7  UNL     1       1.987  -3.014  -1.738  1.00  0.00     0.172 C   
BRANCH   7   8
ATOM     8   C6  UNL     1       2.518  -1.921  -2.628  1.00  0.00     0.004 A   
ATOM     9   C2  UNL     1       3.376   0.353  -2.940  1.00  0.00     0.105 A   
ATOM     10  C3  UNL     1       3.489   0.125  -4.309  1.00  0.00     0.036 A   
ATOM     11  C23 UNL     1       2.891  -0.674  -2.117  1.00  0.00     0.106 A   
ATOM     12  C4  UNL     1       3.116  -1.113  -4.841  1.00  0.00     0.003 A   
ATOM     13  C5  UNL     1       2.633  -2.127  -4.010  1.00  0.00     0.008 A   
BRANCH   9  14
ATOM     14  O1  UNL     1       3.690   1.515  -2.284  1.00  0.00    -0.347 OA  
ATOM     15  C1  UNL     1       4.252   2.561  -3.071  1.00  0.00     0.203 C   
ENDBRANCH   9  14
BRANCH  11  16
ATOM     16  O4  UNL     1       2.770  -0.441  -0.769  1.00  0.00    -0.358 OA  
ATOM     17  H29 UNL     1       3.079   0.482  -0.643  1.00  0.00     0.218 HD  
ENDBRANCH  11  16
ENDBRANCH   7   8
ENDBRANCH   1   7
BRANCH   3  18
ATOM     18  C10 UNL     1      -2.206  -1.340   0.469  1.00  0.00     0.120 C   
BRANCH  18  19
ATOM     19  N2  UNL     1      -3.099  -0.499  -0.429  1.00  0.00     0.250 N   
ATOM     20  H11 UNL     1      -3.540  -1.149  -1.092  1.00  0.00     0.199 HD  
ATOM     21  H12 UNL     1      -3.840  -0.057   0.116  1.00  0.00     0.199 HD  
BRANCH  19  22
ATOM     22  C11 UNL     1      -2.425   0.552  -1.257  1.00  0.00     0.164 C   
BRANCH  22  23
ATOM     23  C12 UNL     1      -1.611   1.531  -0.457  1.00  0.00    -0.002 A   
ATOM     24  C13 UNL     1      -2.237   2.467   0.400  1.00  0.00     0.012 A   
ATOM     25  C17 UNL     1      -0.207   1.496  -0.535  1.00  0.00     0.045 A   
ATOM     26  C14 UNL     1      -1.475   3.347   1.178  1.00  0.00     0.037 A   
ATOM     27  C16 UNL     1       0.515   2.370   0.250  1.00  0.00     0.109 A   
ATOM     28  C15 UNL     1      -0.102   3.270   1.082  1.00  0.00     0.108 A   
ATOM     29  O2  UNL     1       1.870   2.448   0.309  1.00  0.00    -0.316 OA  
ATOM     30  O3  UNL     1       0.787   4.035   1.766  1.00  0.00    -0.316 OA  
ATOM     31  C18 UNL     1       2.039   3.532   1.252  1.00  0.00     0.337 C   
ENDBRANCH  22  23
ENDBRANCH  19  22
ENDBRANCH  18  19
BRANCH  18  32
ATOM     32  C19 UNL     1      -3.074  -2.289   1.370  1.00  0.00     0.010 C   
ATOM     33  C20 UNL     1      -3.942  -3.270   0.557  1.00  0.00     0.017 C   
ATOM     34  C21 UNL     1      -4.011  -1.460   2.280  1.00  0.00     0.017 C   
ATOM     35  C22 UNL     1      -2.155  -3.113   2.302  1.00  0.00     0.017 C   
ENDBRANCH  18  32
ENDBRANCH   3  18
TORSDOF 9
