REMARK SMILES CC(=O)c1cccc(-n2cc([C@@H]([NH2+]Cc3ccc4c(c3)OCO4)C3CCCCC3)nn2)c1
REMARK SMILES IDX 9 1 10 2 11 3 30 4 31 5 8 6 4 7 5 8 32 9 6 10 7 11 2 12 1 13
REMARK SMILES IDX 3 14 12 15 13 16 14 19 15 20 16 21 20 22 17 23 19 24 18 25
REMARK SMILES IDX 21 26 23 27 22 28 24 29 25 30 29 31 26 32 28 33 27 34
REMARK H PARENT 13 17 13 18
ROOT
ATOM     1   N1  UNL     1      -2.166   0.078  -1.327  1.00  0.00    -0.181 N   
ATOM     2   C8  UNL     1      -2.228   0.979  -0.281  1.00  0.00     0.135 A   
ATOM     3   C9  UNL     1      -0.938   1.068   0.194  1.00  0.00     0.127 A   
ATOM     4   N3  UNL     1      -0.137   0.235  -0.536  1.00  0.00    -0.131 NA  
ATOM     5   N4  UNL     1      -0.887  -0.366  -1.443  1.00  0.00    -0.071 NA  
ENDROOT
BRANCH   1   6
ATOM     6   C7  UNL     1      -3.200  -0.381  -2.182  1.00  0.00     0.058 A   
ATOM     7   C3  UNL     1      -3.907  -1.785  -4.043  1.00  0.00     0.019 A   
ATOM     8   C4  UNL     1      -5.216  -1.316  -3.879  1.00  0.00     0.012 A   
ATOM     9   C25 UNL     1      -2.898  -1.316  -3.191  1.00  0.00     0.037 A   
ATOM     10  C5  UNL     1      -5.517  -0.387  -2.883  1.00  0.00     0.003 A   
ATOM     11  C6  UNL     1      -4.514   0.083  -2.034  1.00  0.00     0.026 A   
BRANCH   7  12
ATOM     12  C2  UNL     1      -3.642  -2.779  -5.127  1.00  0.00     0.159 C   
ATOM     13  C1  UNL     1      -2.230  -3.243  -5.369  1.00  0.00     0.093 C   
ATOM     14  O1  UNL     1      -4.576  -3.205  -5.801  1.00  0.00    -0.295 OA  
ENDBRANCH   7  12
ENDBRANCH   1   6
BRANCH   3  15
ATOM     15  C10 UNL     1      -0.345   1.869   1.313  1.00  0.00     0.117 C   
BRANCH  15  16
ATOM     16  N2  UNL     1       0.962   1.268   1.753  1.00  0.00     0.249 N   
ATOM     17  H9  UNL     1       1.466   0.988   0.897  1.00  0.00     0.199 HD  
ATOM     18  H10 UNL     1       1.567   1.947   2.225  1.00  0.00     0.199 HD  
BRANCH  16  19
ATOM     19  C11 UNL     1       0.849   0.052   2.607  1.00  0.00     0.164 C   
BRANCH  19  20
ATOM     20  C12 UNL     1       2.207  -0.538   2.858  1.00  0.00    -0.002 A   
ATOM     21  C13 UNL     1       2.760  -1.462   1.938  1.00  0.00     0.012 A   
ATOM     22  C17 UNL     1       2.961  -0.134   3.973  1.00  0.00     0.045 A   
ATOM     23  C14 UNL     1       4.041  -1.989   2.132  1.00  0.00     0.037 A   
ATOM     24  C16 UNL     1       4.221  -0.673   4.133  1.00  0.00     0.109 A   
ATOM     25  C15 UNL     1       4.747  -1.573   3.239  1.00  0.00     0.108 A   
ATOM     26  O2  UNL     1       5.077  -0.391   5.150  1.00  0.00    -0.316 OA  
ATOM     27  O3  UNL     1       5.998  -1.975   3.583  1.00  0.00    -0.316 OA  
ATOM     28  C18 UNL     1       6.197  -1.239   4.810  1.00  0.00     0.337 C   
ENDBRANCH  19  20
ENDBRANCH  16  19
ENDBRANCH  15  16
BRANCH  15  29
ATOM     29  C19 UNL     1      -0.152   3.360   0.922  1.00  0.00     0.043 C   
ATOM     30  C20 UNL     1       0.123   4.242   2.157  1.00  0.00     0.010 C   
ATOM     31  C24 UNL     1       0.932   3.589  -0.149  1.00  0.00     0.010 C   
ATOM     32  C21 UNL     1       0.243   5.718   1.778  1.00  0.00     0.001 C   
ATOM     33  C23 UNL     1       1.052   5.067  -0.520  1.00  0.00     0.001 C   
ATOM     34  C22 UNL     1       1.305   5.938   0.706  1.00  0.00     0.000 C   
ENDBRANCH  15  29
ENDBRANCH   3  15
TORSDOF 7
