REMARK SMILES C[C@H](c1ccccn1)n1cc([C@@H]([NH2+]Cc2ccc3c(c2)OCO3)C2CCCC2)nn1
REMARK SMILES IDX 12 1 11 2 9 3 10 4 30 5 29 6 2 8 1 9 3 10 4 11 8 12 5 13
REMARK SMILES IDX 7 14 6 15 13 16 14 19 15 20 16 21 20 22 17 23 19 24 18 25
REMARK SMILES IDX 21 26 23 27 22 28 24 29 25 30 28 31 26 32 27 33
REMARK H PARENT 10 7 13 17 13 18
ROOT
ATOM     1   C10 UNL     1      -1.381  -0.051  -1.104  1.00  0.00     0.117 C   
ENDROOT
BRANCH   1   2
ATOM     2   C9  UNL     1      -0.918  -1.329  -0.489  1.00  0.00     0.127 A   
ATOM     3   N2  UNL     1      -0.072  -2.903   0.733  1.00  0.00    -0.203 N   
ATOM     4   C8  UNL     1      -0.528  -1.614   0.798  1.00  0.00     0.046 A   
ATOM     5   N5  UNL     1      -0.204  -3.389  -0.520  1.00  0.00    -0.075 NA  
ATOM     6   N4  UNL     1      -0.724  -2.434  -1.275  1.00  0.00    -0.132 NA  
ATOM     7   H9  UNL     1      -0.480  -1.031   1.708  1.00  0.00     0.083 HD  
BRANCH   3   8
ATOM     8   C2  UNL     1       0.543  -3.715   1.778  1.00  0.00     0.145 C   
ATOM     9   C1  UNL     1      -0.290  -3.748   3.061  1.00  0.00     0.038 C   
BRANCH   8  10
ATOM     10  C3  UNL     1       1.958  -3.225   2.032  1.00  0.00     0.063 A   
ATOM     11  C4  UNL     1       3.046  -4.045   1.736  1.00  0.00     0.026 A   
ATOM     12  N1  UNL     1       2.116  -1.977   2.553  1.00  0.00    -0.259 NA  
ATOM     13  C5  UNL     1       4.333  -3.582   1.997  1.00  0.00     0.004 A   
ATOM     14  C7  UNL     1       3.378  -1.562   2.811  1.00  0.00     0.111 A   
ATOM     15  C6  UNL     1       4.505  -2.319   2.549  1.00  0.00     0.020 A   
ENDBRANCH   8  10
ENDBRANCH   3   8
ENDBRANCH   1   2
BRANCH   1  16
ATOM     16  N3  UNL     1      -0.639   0.197  -2.402  1.00  0.00     0.249 N   
ATOM     17  H11 UNL     1      -1.011   1.028  -2.868  1.00  0.00     0.199 HD  
ATOM     18  H12 UNL     1      -0.832  -0.612  -3.007  1.00  0.00     0.199 HD  
BRANCH  16  19
ATOM     19  C11 UNL     1       0.849   0.328  -2.302  1.00  0.00     0.164 C   
BRANCH  19  20
ATOM     20  C12 UNL     1       1.288   1.474  -1.433  1.00  0.00    -0.002 A   
ATOM     21  C13 UNL     1       1.863   1.223  -0.164  1.00  0.00     0.012 A   
ATOM     22  C17 UNL     1       1.100   2.800  -1.858  1.00  0.00     0.045 A   
ATOM     23  C14 UNL     1       2.239   2.277   0.676  1.00  0.00     0.037 A   
ATOM     24  C16 UNL     1       1.482   3.815  -1.005  1.00  0.00     0.109 A   
ATOM     25  C15 UNL     1       2.034   3.562   0.226  1.00  0.00     0.108 A   
ATOM     26  O1  UNL     1       1.362   5.145  -1.258  1.00  0.00    -0.316 OA  
ATOM     27  O2  UNL     1       2.334   4.700   0.904  1.00  0.00    -0.316 OA  
ATOM     28  C18 UNL     1       1.931   5.705  -0.052  1.00  0.00     0.337 C   
ENDBRANCH  19  20
ENDBRANCH  16  19
ENDBRANCH   1  16
BRANCH   1  29
ATOM     29  C19 UNL     1      -2.892  -0.071  -1.404  1.00  0.00     0.043 C   
ATOM     30  C20 UNL     1      -3.757  -0.201  -0.146  1.00  0.00     0.010 C   
ATOM     31  C23 UNL     1      -3.431   1.226  -2.017  1.00  0.00     0.010 C   
ATOM     32  C21 UNL     1      -5.149   0.199  -0.615  1.00  0.00     0.001 C   
ATOM     33  C22 UNL     1      -4.933   1.200  -1.747  1.00  0.00     0.001 C   
ENDBRANCH   1  29
TORSDOF 7
