REMARK SMILES C[C@@H](c1ccccn1)n1cc([C@@H]([NH2+]Cc2ccc3c(c2)OCO3)C2CCCC2)nn1
REMARK SMILES IDX 12 1 11 2 9 3 10 4 30 5 29 6 2 8 1 9 3 10 4 11 8 12 5 13
REMARK SMILES IDX 7 14 6 15 13 16 14 19 15 20 16 21 20 22 17 23 19 24 18 25
REMARK SMILES IDX 21 26 23 27 22 28 24 29 25 30 28 31 26 32 27 33
REMARK H PARENT 10 7 13 17 13 18
ROOT
ATOM     1   C10 UNL     1      -0.789   1.079   0.622  1.00  0.00     0.117 C   
ENDROOT
BRANCH   1   2
ATOM     2   C9  UNL     1      -0.421  -0.114  -0.196  1.00  0.00     0.127 A   
ATOM     3   N2  UNL     1      -0.306  -1.857  -1.481  1.00  0.00    -0.203 N   
ATOM     4   C8  UNL     1      -1.202  -0.980  -0.928  1.00  0.00     0.046 A   
ATOM     5   N5  UNL     1       0.940  -1.602  -1.032  1.00  0.00    -0.075 NA  
ATOM     6   N4  UNL     1       0.885  -0.528  -0.258  1.00  0.00    -0.132 NA  
ATOM     7   H9  UNL     1      -2.263  -1.035  -1.136  1.00  0.00     0.083 HD  
BRANCH   3   8
ATOM     8   C2  UNL     1      -0.551  -2.962  -2.405  1.00  0.00     0.145 C   
ATOM     9   C1  UNL     1      -1.386  -4.067  -1.752  1.00  0.00     0.038 C   
BRANCH   8  10
ATOM     10  C3  UNL     1      -1.177  -2.429  -3.683  1.00  0.00     0.063 A   
ATOM     11  C4  UNL     1      -0.386  -2.183  -4.805  1.00  0.00     0.026 A   
ATOM     12  N1  UNL     1      -2.512  -2.173  -3.671  1.00  0.00    -0.259 NA  
ATOM     13  C5  UNL     1      -0.986  -1.682  -5.957  1.00  0.00     0.004 A   
ATOM     14  C7  UNL     1      -3.068  -1.700  -4.809  1.00  0.00     0.111 A   
ATOM     15  C6  UNL     1      -2.353  -1.439  -5.963  1.00  0.00     0.020 A   
ENDBRANCH   8  10
ENDBRANCH   3   8
ENDBRANCH   1   2
BRANCH   1  16
ATOM     16  N3  UNL     1       0.117   1.190   1.823  1.00  0.00     0.249 N   
ATOM     17  H11 UNL     1       1.084   1.097   1.483  1.00  0.00     0.199 HD  
ATOM     18  H12 UNL     1       0.049   2.118   2.254  1.00  0.00     0.199 HD  
BRANCH  16  19
ATOM     19  C11 UNL     1      -0.085   0.149   2.869  1.00  0.00     0.164 C   
BRANCH  19  20
ATOM     20  C12 UNL     1       0.820   0.405   4.042  1.00  0.00    -0.002 A   
ATOM     21  C13 UNL     1       0.361   1.161   5.149  1.00  0.00     0.012 A   
ATOM     22  C17 UNL     1       2.146  -0.062   4.023  1.00  0.00     0.045 A   
ATOM     23  C14 UNL     1       1.209   1.442   6.226  1.00  0.00     0.037 A   
ATOM     24  C16 UNL     1       2.954   0.231   5.103  1.00  0.00     0.109 A   
ATOM     25  C15 UNL     1       2.500   0.964   6.172  1.00  0.00     0.108 A   
ATOM     26  O1  UNL     1       4.252  -0.144   5.246  1.00  0.00    -0.316 OA  
ATOM     27  O2  UNL     1       3.454   1.139   7.122  1.00  0.00    -0.316 OA  
ATOM     28  C18 UNL     1       4.560   0.418   6.541  1.00  0.00     0.337 C   
ENDBRANCH  19  20
ENDBRANCH  16  19
ENDBRANCH   1  16
BRANCH   1  29
ATOM     29  C19 UNL     1      -0.735   2.420  -0.136  1.00  0.00     0.043 C   
ATOM     30  C20 UNL     1      -1.620   2.496  -1.381  1.00  0.00     0.010 C   
ATOM     31  C23 UNL     1       0.635   2.850  -0.673  1.00  0.00     0.010 C   
ATOM     32  C21 UNL     1      -1.165   3.787  -2.046  1.00  0.00     0.001 C   
ATOM     33  C22 UNL     1       0.335   3.874  -1.771  1.00  0.00     0.001 C   
ENDBRANCH   1  29
TORSDOF 7
