REMARK SMILES COc1cccc(CCn2cc([C@@H]([NH2+]Cc3ccc4c(c3)OCO4)C(C)(C)C)nn2)c1
REMARK SMILES IDX 10 1 11 2 12 3 29 4 30 5 9 7 8 8 7 9 3 10 4 11 31 12 5 13
REMARK SMILES IDX 6 14 2 15 1 16 13 17 14 18 15 21 16 22 17 23 21 24 18 25
REMARK SMILES IDX 20 26 19 27 22 28 24 29 23 30 25 31 26 32 27 33 28 34
REMARK H PARENT 11 6 14 19 14 20
ROOT
ATOM     1   N1  UNL     1      -3.681  -1.457   0.178  1.00  0.00    -0.212 N   
ATOM     2   C9  UNL     1      -2.635  -1.255   1.034  1.00  0.00     0.045 A   
ATOM     3   C10 UNL     1      -2.461   0.112   1.026  1.00  0.00     0.127 A   
ATOM     4   N3  UNL     1      -3.395   0.679   0.197  1.00  0.00    -0.132 NA  
ATOM     5   N4  UNL     1      -4.142  -0.289  -0.306  1.00  0.00    -0.076 NA  
ATOM     6   H11 UNL     1      -2.104  -2.070   1.506  1.00  0.00     0.083 HD  
ENDROOT
BRANCH   1   7
ATOM     7   C8  UNL     1      -4.215  -2.717  -0.296  1.00  0.00     0.139 C   
BRANCH   7   8
ATOM     8   C7  UNL     1      -3.837  -3.016  -1.750  1.00  0.00     0.057 C   
BRANCH   8   9
ATOM     9   C6  UNL     1      -2.344  -3.117  -1.961  1.00  0.00    -0.044 A   
ATOM     10  C2  UNL     1      -0.235  -2.073  -2.604  1.00  0.00     0.075 A   
ATOM     11  C3  UNL     1       0.439  -3.252  -2.291  1.00  0.00     0.033 A   
ATOM     12  C24 UNL     1      -1.621  -2.010  -2.434  1.00  0.00     0.037 A   
ATOM     13  C4  UNL     1      -0.271  -4.360  -1.822  1.00  0.00     0.003 A   
ATOM     14  C5  UNL     1      -1.655  -4.295  -1.656  1.00  0.00     0.004 A   
BRANCH  10  15
ATOM     15  O1  UNL     1       0.350  -0.911  -3.033  1.00  0.00    -0.349 OA  
ATOM     16  C1  UNL     1       1.640  -1.053  -3.626  1.00  0.00     0.203 C   
ENDBRANCH  10  15
ENDBRANCH   8   9
ENDBRANCH   7   8
ENDBRANCH   1   7
BRANCH   3  17
ATOM     17  C11 UNL     1      -1.401   0.972   1.641  1.00  0.00     0.120 C   
BRANCH  17  18
ATOM     18  N2  UNL     1      -0.934   1.968   0.599  1.00  0.00     0.250 N   
ATOM     19  H13 UNL     1      -1.790   2.350   0.172  1.00  0.00     0.199 HD  
ATOM     20  H14 UNL     1      -0.432   2.751   1.021  1.00  0.00     0.199 HD  
BRANCH  18  21
ATOM     21  C12 UNL     1      -0.105   1.407  -0.512  1.00  0.00     0.164 C   
BRANCH  21  22
ATOM     22  C13 UNL     1       1.292   1.070  -0.069  1.00  0.00    -0.002 A   
ATOM     23  C14 UNL     1       2.251   2.095   0.120  1.00  0.00     0.012 A   
ATOM     24  C18 UNL     1       1.649  -0.265   0.190  1.00  0.00     0.045 A   
ATOM     25  C15 UNL     1       3.545   1.796   0.561  1.00  0.00     0.037 A   
ATOM     26  C17 UNL     1       2.932  -0.526   0.621  1.00  0.00     0.109 A   
ATOM     27  C16 UNL     1       3.853   0.475   0.803  1.00  0.00     0.108 A   
ATOM     28  O2  UNL     1       3.434  -1.754   0.913  1.00  0.00    -0.316 OA  
ATOM     29  O3  UNL     1       5.052   0.004   1.233  1.00  0.00    -0.316 OA  
ATOM     30  C19 UNL     1       4.789  -1.414   1.286  1.00  0.00     0.337 C   
ENDBRANCH  21  22
ENDBRANCH  18  21
ENDBRANCH  17  18
BRANCH  17  31
ATOM     31  C20 UNL     1      -1.846   1.713   2.950  1.00  0.00     0.010 C   
ATOM     32  C21 UNL     1      -2.954   2.756   2.706  1.00  0.00     0.017 C   
ATOM     33  C22 UNL     1      -2.362   0.689   3.987  1.00  0.00     0.017 C   
ATOM     34  C23 UNL     1      -0.636   2.432   3.592  1.00  0.00     0.017 C   
ENDBRANCH  17  31
ENDBRANCH   3  17
TORSDOF 9
