REMARK SMILES Cc1ccc(-n2cc([C@H](CC(C)C)[NH2+]Cc3ccc4c(c3)OCO4)nn2)cc1N([O-])[O-]
REMARK SMILES IDX 6 1 7 2 8 3 25 4 26 5 5 6 2 7 3 8 28 9 4 10 27 11 1 12 29 13
REMARK SMILES IDX 30 14 31 15 9 16 10 17 11 18 12 19 13 20 14 21 15 24 16 25
REMARK SMILES IDX 17 26 21 27 18 28 20 29 19 30 22 31 24 32 23 33
REMARK H PARENT 14 22 14 23
ROOT
ATOM     1   N1  UNL     1       1.451  -0.463   0.905  1.00  0.00    -0.181 N   
ATOM     2   C6  UNL     1       0.298  -0.031   0.280  1.00  0.00     0.135 A   
ATOM     3   C7  UNL     1      -0.681  -0.120   1.244  1.00  0.00     0.127 A   
ATOM     4   N3  UNL     1      -0.117  -0.518   2.421  1.00  0.00    -0.131 NA  
ATOM     5   N4  UNL     1       1.177  -0.701   2.213  1.00  0.00    -0.071 NA  
ENDROOT
BRANCH   1   6
ATOM     6   C5  UNL     1       2.730  -0.712   0.346  1.00  0.00     0.060 A   
ATOM     7   C2  UNL     1       5.280  -1.313  -0.746  1.00  0.00    -0.022 A   
ATOM     8   C3  UNL     1       5.027  -1.463   0.626  1.00  0.00     0.007 A   
ATOM     9   C22 UNL     1       4.235  -0.830  -1.553  1.00  0.00     0.122 A   
ATOM     10  C4  UNL     1       3.768  -1.172   1.167  1.00  0.00     0.026 A   
ATOM     11  C21 UNL     1       2.966  -0.534  -1.021  1.00  0.00     0.057 A   
ATOM     12  C1  UNL     1       6.647  -1.654  -1.273  1.00  0.00     0.046 C   
BRANCH   9  13
ATOM     13  N5  UNL     1       4.412  -0.624  -2.991  1.00  0.00     0.092 N   
ATOM     14  O3  UNL     1       5.446  -0.063  -3.371  1.00  0.00    -0.138 OA  
ATOM     15  O4  UNL     1       3.484  -0.993  -3.725  1.00  0.00    -0.138 OA  
ENDBRANCH   9  13
ENDBRANCH   1   6
BRANCH   3  16
ATOM     16  C8  UNL     1      -2.165   0.025   1.157  1.00  0.00     0.114 C   
BRANCH  16  17
ATOM     17  C9  UNL     1      -2.686   1.247   1.936  1.00  0.00     0.064 C   
BRANCH  17  18
ATOM     18  C10 UNL     1      -2.168   2.612   1.432  1.00  0.00    -0.012 C   
ATOM     19  C11 UNL     1      -2.558   2.883  -0.022  1.00  0.00     0.007 C   
ATOM     20  C12 UNL     1      -2.706   3.731   2.328  1.00  0.00     0.007 C   
ENDBRANCH  17  18
ENDBRANCH  16  17
BRANCH  16  21
ATOM     21  N2  UNL     1      -2.818  -1.208   1.761  1.00  0.00     0.249 N   
ATOM     22  H17 UNL     1      -3.696  -0.955   2.225  1.00  0.00     0.199 HD  
ATOM     23  H18 UNL     1      -2.187  -1.530   2.512  1.00  0.00     0.199 HD  
BRANCH  21  24
ATOM     24  C13 UNL     1      -3.081  -2.351   0.834  1.00  0.00     0.164 C   
BRANCH  24  25
ATOM     25  C14 UNL     1      -1.853  -2.900   0.162  1.00  0.00    -0.002 A   
ATOM     26  C15 UNL     1      -1.641  -2.689  -1.223  1.00  0.00     0.012 A   
ATOM     27  C19 UNL     1      -0.880  -3.586   0.910  1.00  0.00     0.045 A   
ATOM     28  C16 UNL     1      -0.465  -3.123  -1.847  1.00  0.00     0.037 A   
ATOM     29  C18 UNL     1       0.269  -3.997   0.266  1.00  0.00     0.109 A   
ATOM     30  C17 UNL     1       0.474  -3.767  -1.072  1.00  0.00     0.108 A   
ATOM     31  O1  UNL     1       1.315  -4.639   0.848  1.00  0.00    -0.316 OA  
ATOM     32  O2  UNL     1       1.677  -4.228  -1.499  1.00  0.00    -0.316 OA  
ATOM     33  C20 UNL     1       2.192  -4.820  -0.286  1.00  0.00     0.337 C   
ENDBRANCH  24  25
ENDBRANCH  21  24
ENDBRANCH  16  21
ENDBRANCH   3  16
TORSDOF 8
