REMARK SMILES CC(C)C[C@H]([NH2+]Cc1ccc2c(c1)OCO2)c1cn(Cc2cc[nH]c2)nn1
REMARK SMILES IDX 17 1 18 2 19 3 26 4 27 5 5 7 4 8 2 9 1 10 3 11 6 12 7 15
REMARK SMILES IDX 8 16 9 17 13 18 10 19 12 20 11 21 14 22 16 23 15 24 20 25
REMARK SMILES IDX 21 26 22 27 25 28 23 29 24 30
REMARK H PARENT 18 6 6 13 6 14 24 31
ROOT
ATOM     1   C14 UNL     1      -0.957  -0.407   1.143  1.00  0.00     0.127 A   
ATOM     2   C15 UNL     1       0.418  -0.443   1.147  1.00  0.00     0.046 A   
ATOM     3   N2  UNL     1       0.715  -1.624   1.773  1.00  0.00    -0.208 N   
ATOM     4   N4  UNL     1      -0.410  -2.242   2.186  1.00  0.00    -0.076 NA  
ATOM     5   N5  UNL     1      -1.441  -1.503   1.808  1.00  0.00    -0.132 NA  
ATOM     6   H20 UNL     1       1.183   0.189   0.716  1.00  0.00     0.083 HD  
ENDROOT
BRANCH   1   7
ATOM     7   C5  UNL     1      -1.901   0.520   0.460  1.00  0.00     0.114 C   
BRANCH   7   8
ATOM     8   C4  UNL     1      -2.647   1.443   1.442  1.00  0.00     0.064 C   
BRANCH   8   9
ATOM     9   C2  UNL     1      -1.747   2.413   2.239  1.00  0.00    -0.012 C   
ATOM     10  C1  UNL     1      -2.601   3.215   3.224  1.00  0.00     0.007 C   
ATOM     11  C3  UNL     1      -0.972   3.369   1.331  1.00  0.00     0.007 C   
ENDBRANCH   8   9
ENDBRANCH   7   8
BRANCH   7  12
ATOM     12  N1  UNL     1      -2.958  -0.270  -0.291  1.00  0.00     0.249 N   
ATOM     13  H11 UNL     1      -3.647   0.371  -0.694  1.00  0.00     0.199 HD  
ATOM     14  H12 UNL     1      -3.443  -0.845   0.411  1.00  0.00     0.199 HD  
BRANCH  12  15
ATOM     15  C6  UNL     1      -2.468  -1.206  -1.353  1.00  0.00     0.164 C   
BRANCH  15  16
ATOM     16  C7  UNL     1      -1.657  -0.534  -2.425  1.00  0.00    -0.002 A   
ATOM     17  C8  UNL     1      -2.267   0.362  -3.336  1.00  0.00     0.012 A   
ATOM     18  C12 UNL     1      -0.273  -0.776  -2.515  1.00  0.00     0.045 A   
ATOM     19  C9  UNL     1      -1.510   1.018  -4.313  1.00  0.00     0.037 A   
ATOM     20  C11 UNL     1       0.444  -0.112  -3.488  1.00  0.00     0.109 A   
ATOM     21  C10 UNL     1      -0.157   0.761  -4.360  1.00  0.00     0.108 A   
ATOM     22  O1  UNL     1       1.782  -0.224  -3.702  1.00  0.00    -0.316 OA  
ATOM     23  O2  UNL     1       0.725   1.308  -5.236  1.00  0.00    -0.316 OA  
ATOM     24  C13 UNL     1       1.950   0.657  -4.837  1.00  0.00     0.337 C   
ENDBRANCH  15  16
ENDBRANCH  12  15
ENDBRANCH   7  12
ENDBRANCH   1   7
BRANCH   3  25
ATOM     25  C16 UNL     1       2.014  -2.263   1.902  1.00  0.00     0.170 C   
BRANCH  25  26
ATOM     26  C17 UNL     1       2.475  -2.736   0.559  1.00  0.00    -0.013 A   
ATOM     27  C18 UNL     1       2.028  -3.902  -0.127  1.00  0.00     0.022 A   
ATOM     28  C20 UNL     1       3.406  -2.131  -0.268  1.00  0.00     0.076 A   
ATOM     29  C19 UNL     1       2.684  -3.958  -1.335  1.00  0.00     0.072 A   
ATOM     30  N3  UNL     1       3.526  -2.881  -1.410  1.00  0.00    -0.327 N   
ATOM     31  H25 UNL     1       4.147  -2.678  -2.185  1.00  0.00     0.152 HD  
ENDBRANCH  25  26
ENDBRANCH   3  25
TORSDOF 8
