REMARK SMILES Cc1ccc([C@@H](O)Cn2cc([C@@H]([NH2+]Cc3ccc4c(c3)OCO4)C3CCCCC3)nn2)s1
REMARK SMILES IDX 9 1 10 2 11 3 30 4 31 5 8 7 6 8 5 9 2 10 3 11 32 12 4 13
REMARK SMILES IDX 1 14 7 15 12 17 13 18 14 21 15 22 16 23 20 24 17 25 19 26
REMARK SMILES IDX 18 27 21 28 23 29 22 30 24 31 25 32 29 33 26 34 28 35 27 36
REMARK H PARENT 10 6 7 16 13 19 13 20
ROOT
ATOM     1   N1  UNL     1       2.826   0.994   0.019  1.00  0.00    -0.209 N   
ATOM     2   C8  UNL     1       1.710   1.357  -0.682  1.00  0.00     0.045 A   
ATOM     3   C9  UNL     1       0.698   1.303   0.250  1.00  0.00     0.127 A   
ATOM     4   N3  UNL     1       1.218   0.910   1.456  1.00  0.00    -0.132 NA  
ATOM     5   N4  UNL     1       2.521   0.739   1.306  1.00  0.00    -0.076 NA  
ATOM     6   H10 UNL     1       1.745   1.593  -1.737  1.00  0.00     0.083 HD  
ENDROOT
BRANCH   1   7
ATOM     7   C7  UNL     1       4.197   0.938  -0.442  1.00  0.00     0.171 C   
BRANCH   7   8
ATOM     8   C6  UNL     1       4.522  -0.286  -1.302  1.00  0.00     0.170 C   
BRANCH   8   9
ATOM     9   C5  UNL     1       4.253  -1.598  -0.621  1.00  0.00     0.020 A   
ATOM     10  C2  UNL     1       4.480  -3.638   0.760  1.00  0.00    -0.014 A   
ATOM     11  C3  UNL     1       3.251  -3.562   0.140  1.00  0.00     0.011 A   
ATOM     12  S1  UNL     1       5.462  -2.293   0.376  1.00  0.00    -0.097 S   
ATOM     13  C4  UNL     1       3.121  -2.390  -0.659  1.00  0.00     0.014 A   
ATOM     14  C1  UNL     1       4.996  -4.699   1.671  1.00  0.00     0.052 C   
ENDBRANCH   8   9
BRANCH   8  15
ATOM     15  O1  UNL     1       3.766  -0.256  -2.518  1.00  0.00    -0.386 OA  
ATOM     16  H7  UNL     1       4.082  -1.008  -3.054  1.00  0.00     0.211 HD  
ENDBRANCH   8  15
ENDBRANCH   7   8
ENDBRANCH   1   7
BRANCH   3  17
ATOM     17  C10 UNL     1      -0.777   1.515   0.126  1.00  0.00     0.117 C   
BRANCH  17  18
ATOM     18  N2  UNL     1      -1.458   0.463   0.984  1.00  0.00     0.249 N   
ATOM     19  H12 UNL     1      -0.706  -0.159   1.324  1.00  0.00     0.199 HD  
ATOM     20  H13 UNL     1      -1.813   0.893   1.844  1.00  0.00     0.199 HD  
BRANCH  18  21
ATOM     21  C11 UNL     1      -2.496  -0.375   0.334  1.00  0.00     0.164 C   
BRANCH  21  22
ATOM     22  C12 UNL     1      -1.935  -1.332  -0.682  1.00  0.00    -0.002 A   
ATOM     23  C13 UNL     1      -2.106  -1.089  -2.067  1.00  0.00     0.012 A   
ATOM     24  C17 UNL     1      -1.221  -2.469  -0.264  1.00  0.00     0.045 A   
ATOM     25  C14 UNL     1      -1.570  -1.959  -3.022  1.00  0.00     0.037 A   
ATOM     26  C16 UNL     1      -0.715  -3.312  -1.233  1.00  0.00     0.109 A   
ATOM     27  C15 UNL     1      -0.880  -3.062  -2.572  1.00  0.00     0.108 A   
ATOM     28  O2  UNL     1      -0.014  -4.452  -1.000  1.00  0.00    -0.316 OA  
ATOM     29  O3  UNL     1      -0.299  -4.010  -3.352  1.00  0.00    -0.316 OA  
ATOM     30  C18 UNL     1       0.225  -4.908  -2.352  1.00  0.00     0.337 C   
ENDBRANCH  21  22
ENDBRANCH  18  21
ENDBRANCH  17  18
BRANCH  17  31
ATOM     31  C19 UNL     1      -1.229   2.933   0.579  1.00  0.00     0.043 C   
ATOM     32  C20 UNL     1      -2.762   3.104   0.508  1.00  0.00     0.010 C   
ATOM     33  C24 UNL     1      -0.549   4.031  -0.271  1.00  0.00     0.010 C   
ATOM     34  C21 UNL     1      -3.211   4.514   0.888  1.00  0.00     0.001 C   
ATOM     35  C23 UNL     1      -1.010   5.436   0.112  1.00  0.00     0.001 C   
ATOM     36  C22 UNL     1      -2.524   5.572   0.037  1.00  0.00     0.000 C   
ENDBRANCH  17  31
ENDBRANCH   3  17
TORSDOF 9
