REMARK SMILES Cc1ccc([C@H](O)Cn2cc([C@@H]([NH2+]Cc3ccc4c(c3)OCO4)C3CCCCC3)nn2)s1
REMARK SMILES IDX 9 1 10 2 11 3 30 4 31 5 8 7 6 8 5 9 2 10 3 11 32 12 4 13
REMARK SMILES IDX 1 14 7 15 12 17 13 18 14 21 15 22 16 23 20 24 17 25 19 26
REMARK SMILES IDX 18 27 21 28 23 29 22 30 24 31 25 32 29 33 26 34 28 35 27 36
REMARK H PARENT 10 6 7 16 13 19 13 20
ROOT
ATOM     1   N1  UNL     1      -2.497  -0.475   1.256  1.00  0.00    -0.209 N   
ATOM     2   C8  UNL     1      -1.409   0.085   0.647  1.00  0.00     0.045 A   
ATOM     3   C9  UNL     1      -0.414  -0.852   0.813  1.00  0.00     0.127 A   
ATOM     4   N3  UNL     1      -0.915  -1.920   1.511  1.00  0.00    -0.132 NA  
ATOM     5   N4  UNL     1      -2.193  -1.687   1.759  1.00  0.00    -0.076 NA  
ATOM     6   H10 UNL     1      -1.429   1.070   0.203  1.00  0.00     0.083 HD  
ENDROOT
BRANCH   1   7
ATOM     7   C7  UNL     1      -3.793   0.113   1.510  1.00  0.00     0.171 C   
BRANCH   7   8
ATOM     8   C6  UNL     1      -4.689   0.163   0.271  1.00  0.00     0.170 C   
BRANCH   8   9
ATOM     9   C5  UNL     1      -4.365   1.335  -0.619  1.00  0.00     0.020 A   
ATOM     10  C2  UNL     1      -3.615   2.763  -2.494  1.00  0.00    -0.014 A   
ATOM     11  C3  UNL     1      -4.118   3.502  -1.444  1.00  0.00     0.011 A   
ATOM     12  S1  UNL     1      -3.680   1.084  -2.171  1.00  0.00    -0.097 S   
ATOM     13  C4  UNL     1      -4.554   2.682  -0.367  1.00  0.00     0.014 A   
ATOM     14  C1  UNL     1      -3.079   3.256  -3.796  1.00  0.00     0.052 C   
ENDBRANCH   8   9
BRANCH   8  15
ATOM     15  O1  UNL     1      -6.041   0.347   0.698  1.00  0.00    -0.386 OA  
ATOM     16  H7  UNL     1      -6.582   0.469  -0.107  1.00  0.00     0.211 HD  
ENDBRANCH   8  15
ENDBRANCH   7   8
ENDBRANCH   1   7
BRANCH   3  17
ATOM     17  C10 UNL     1       1.047  -0.806   0.499  1.00  0.00     0.117 C   
BRANCH  17  18
ATOM     18  N2  UNL     1       1.828  -1.262   1.718  1.00  0.00     0.249 N   
ATOM     19  H12 UNL     1       1.213  -1.927   2.216  1.00  0.00     0.199 HD  
ATOM     20  H13 UNL     1       2.653  -1.800   1.436  1.00  0.00     0.199 HD  
BRANCH  18  21
ATOM     21  C11 UNL     1       2.251  -0.193   2.675  1.00  0.00     0.164 C   
BRANCH  21  22
ATOM     22  C12 UNL     1       1.127   0.648   3.212  1.00  0.00    -0.002 A   
ATOM     23  C13 UNL     1       0.176   0.096   4.105  1.00  0.00     0.012 A   
ATOM     24  C17 UNL     1       0.976   1.979   2.783  1.00  0.00     0.045 A   
ATOM     25  C14 UNL     1      -0.921   0.847   4.544  1.00  0.00     0.037 A   
ATOM     26  C16 UNL     1      -0.117   2.690   3.233  1.00  0.00     0.109 A   
ATOM     27  C15 UNL     1      -1.043   2.139   4.084  1.00  0.00     0.108 A   
ATOM     28  O2  UNL     1      -0.420   3.970   2.894  1.00  0.00    -0.316 OA  
ATOM     29  O3  UNL     1      -2.049   3.002   4.381  1.00  0.00    -0.316 OA  
ATOM     30  C18 UNL     1      -1.614   4.186   3.680  1.00  0.00     0.337 C   
ENDBRANCH  21  22
ENDBRANCH  18  21
ENDBRANCH  17  18
BRANCH  17  31
ATOM     31  C19 UNL     1       1.469  -1.664  -0.725  1.00  0.00     0.043 C   
ATOM     32  C20 UNL     1       0.857  -1.111  -2.027  1.00  0.00     0.010 C   
ATOM     33  C24 UNL     1       1.168  -3.169  -0.589  1.00  0.00     0.010 C   
ATOM     34  C21 UNL     1       1.309  -1.903  -3.251  1.00  0.00     0.001 C   
ATOM     35  C23 UNL     1       1.623  -3.952  -1.822  1.00  0.00     0.001 C   
ATOM     36  C22 UNL     1       1.008  -3.389  -3.098  1.00  0.00     0.000 C   
ENDBRANCH  17  31
ENDBRANCH   3  17
TORSDOF 9
