REMARK SMILES Cc1cc([C@@H](CO)n2cc([C@@H]([NH2+]Cc3ccc4c(c3)OCO4)C3CCCCC3)nn2)ccc1F
REMARK SMILES IDX 8 1 9 2 10 3 29 4 30 5 5 7 4 8 2 9 3 10 33 11 32 12 31 13
REMARK SMILES IDX 1 14 34 15 6 16 7 17 11 19 12 20 13 23 14 24 15 25 19 26
REMARK SMILES IDX 16 27 18 28 17 29 20 30 22 31 21 32 23 33 24 34 28 35 25 36
REMARK SMILES IDX 27 37 26 38
REMARK H PARENT 9 6 7 18 12 21 12 22
ROOT
ATOM     1   N1  UNL     1       0.515  -2.614   2.001  1.00  0.00    -0.202 N   
ATOM     2   C7  UNL     1       0.036  -1.856   0.966  1.00  0.00     0.046 A   
ATOM     3   C8  UNL     1       1.105  -1.741   0.108  1.00  0.00     0.127 A   
ATOM     4   N3  UNL     1       2.183  -2.400   0.640  1.00  0.00    -0.132 NA  
ATOM     5   N4  UNL     1       1.816  -2.917   1.802  1.00  0.00    -0.075 NA  
ATOM     6   H9  UNL     1      -0.984  -1.496   0.940  1.00  0.00     0.083 HD  
ENDROOT
BRANCH   1   7
ATOM     7   C5  UNL     1      -0.167  -3.041   3.222  1.00  0.00     0.155 C   
BRANCH   7   8
ATOM     8   C4  UNL     1      -0.738  -1.830   3.959  1.00  0.00    -0.023 A   
ATOM     9   C2  UNL     1      -2.580  -0.344   4.588  1.00  0.00    -0.015 A   
ATOM     10  C3  UNL     1      -2.099  -1.475   3.910  1.00  0.00     0.012 A   
ATOM     11  C26 UNL     1      -1.679   0.451   5.297  1.00  0.00     0.126 A   
ATOM     12  C25 UNL     1      -0.330   0.125   5.361  1.00  0.00     0.040 A   
ATOM     13  C24 UNL     1       0.139  -1.009   4.697  1.00  0.00     0.009 A   
ATOM     14  C1  UNL     1      -4.029   0.038   4.512  1.00  0.00     0.047 C   
ATOM     15  F1  UNL     1      -2.110   1.555   5.924  1.00  0.00    -0.207 F   
ENDBRANCH   7   8
BRANCH   7  16
ATOM     16  C6  UNL     1      -1.118  -4.225   2.948  1.00  0.00     0.185 C   
BRANCH  16  17
ATOM     17  O1  UNL     1      -2.110  -3.934   1.962  1.00  0.00    -0.394 OA  
ATOM     18  H8  UNL     1      -2.677  -4.726   1.893  1.00  0.00     0.210 HD  
ENDBRANCH  16  17
ENDBRANCH   7  16
ENDBRANCH   1   7
BRANCH   3  19
ATOM     19  C9  UNL     1       1.247  -0.997  -1.181  1.00  0.00     0.117 C   
BRANCH  19  20
ATOM     20  N2  UNL     1       2.586  -0.281  -1.200  1.00  0.00     0.249 N   
ATOM     21  H11 UNL     1       2.738   0.175  -2.101  1.00  0.00     0.199 HD  
ATOM     22  H12 UNL     1       3.305  -1.010  -1.093  1.00  0.00     0.199 HD  
BRANCH  20  23
ATOM     23  C10 UNL     1       2.819   0.735  -0.127  1.00  0.00     0.164 C   
BRANCH  23  24
ATOM     24  C11 UNL     1       1.882   1.908  -0.213  1.00  0.00    -0.002 A   
ATOM     25  C12 UNL     1       0.825   2.048   0.718  1.00  0.00     0.012 A   
ATOM     26  C16 UNL     1       2.032   2.858  -1.238  1.00  0.00     0.045 A   
ATOM     27  C13 UNL     1      -0.076   3.114   0.628  1.00  0.00     0.037 A   
ATOM     28  C15 UNL     1       1.126   3.897  -1.298  1.00  0.00     0.109 A   
ATOM     29  C14 UNL     1       0.101   4.021  -0.393  1.00  0.00     0.108 A   
ATOM     30  O2  UNL     1       1.128   4.893  -2.222  1.00  0.00    -0.316 OA  
ATOM     31  O3  UNL     1      -0.671   5.112  -0.631  1.00  0.00    -0.316 OA  
ATOM     32  C17 UNL     1       0.004   5.686  -1.772  1.00  0.00     0.337 C   
ENDBRANCH  23  24
ENDBRANCH  20  23
ENDBRANCH  19  20
BRANCH  19  33
ATOM     33  C18 UNL     1       1.155  -1.939  -2.424  1.00  0.00     0.043 C   
ATOM     34  C19 UNL     1      -0.176  -2.728  -2.424  1.00  0.00     0.010 C   
ATOM     35  C23 UNL     1       1.294  -1.166  -3.755  1.00  0.00     0.010 C   
ATOM     36  C20 UNL     1      -0.335  -3.618  -3.655  1.00  0.00     0.001 C   
ATOM     37  C22 UNL     1       1.119  -2.063  -4.979  1.00  0.00     0.001 C   
ATOM     38  C21 UNL     1      -0.201  -2.820  -4.944  1.00  0.00     0.000 C   
ENDBRANCH  19  33
ENDBRANCH   3  19
TORSDOF 9
