REMARK SMILES Cc1cncc(CCn2cc([C@@H]([NH2+]Cc3ccc4c(c3)OCO4)C3CCCCC3)nn2)c1
REMARK SMILES IDX 9 1 10 2 11 3 30 4 31 5 8 7 7 8 6 9 2 10 3 11 32 12 4 13
REMARK SMILES IDX 5 14 1 15 12 16 13 17 14 20 15 21 16 22 20 23 17 24 19 25
REMARK SMILES IDX 18 26 21 27 23 28 22 29 24 30 25 31 29 32 26 33 28 34 27 35
REMARK H PARENT 10 6 13 18 13 19
ROOT
ATOM     1   N2  UNL     1       2.501  -2.301   0.570  1.00  0.00    -0.212 N   
ATOM     2   C8  UNL     1       1.226  -2.063   0.132  1.00  0.00     0.045 A   
ATOM     3   C9  UNL     1       1.369  -0.983  -0.710  1.00  0.00     0.127 A   
ATOM     4   N4  UNL     1       2.700  -0.669  -0.824  1.00  0.00    -0.132 NA  
ATOM     5   N5  UNL     1       3.382  -1.492  -0.048  1.00  0.00    -0.076 NA  
ATOM     6   H10 UNL     1       0.370  -2.608   0.506  1.00  0.00     0.083 HD  
ENDROOT
BRANCH   1   7
ATOM     7   C7  UNL     1       2.934  -3.140   1.670  1.00  0.00     0.139 C   
BRANCH   7   8
ATOM     8   C6  UNL     1       2.316  -2.745   3.019  1.00  0.00     0.058 C   
BRANCH   8   9
ATOM     9   C5  UNL     1       2.463  -1.278   3.336  1.00  0.00    -0.028 A   
ATOM     10  C2  UNL     1       3.800   0.651   3.920  1.00  0.00    -0.032 A   
ATOM     11  C3  UNL     1       2.659   1.425   3.736  1.00  0.00     0.114 A   
ATOM     12  C25 UNL     1       3.689  -0.727   3.711  1.00  0.00     0.010 A   
ATOM     13  N1  UNL     1       1.460   0.933   3.349  1.00  0.00    -0.264 NA  
ATOM     14  C4  UNL     1       1.385  -0.407   3.197  1.00  0.00     0.114 A   
ATOM     15  C1  UNL     1       5.084   1.265   4.383  1.00  0.00     0.046 C   
ENDBRANCH   8   9
ENDBRANCH   7   8
ENDBRANCH   1   7
BRANCH   3  16
ATOM     16  C10 UNL     1       0.361  -0.107  -1.385  1.00  0.00     0.117 C   
BRANCH  16  17
ATOM     17  N3  UNL     1       0.914   1.296  -1.485  1.00  0.00     0.249 N   
ATOM     18  H12 UNL     1       1.922   1.185  -1.673  1.00  0.00     0.199 HD  
ATOM     19  H13 UNL     1       0.520   1.804  -2.278  1.00  0.00     0.199 HD  
BRANCH  17  20
ATOM     20  C11 UNL     1       0.793   2.127  -0.248  1.00  0.00     0.164 C   
BRANCH  20  21
ATOM     21  C12 UNL     1      -0.615   2.604  -0.013  1.00  0.00    -0.002 A   
ATOM     22  C13 UNL     1      -1.238   3.490  -0.927  1.00  0.00     0.012 A   
ATOM     23  C17 UNL     1      -1.328   2.163   1.115  1.00  0.00     0.045 A   
ATOM     24  C14 UNL     1      -2.558   3.910  -0.736  1.00  0.00     0.037 A   
ATOM     25  C16 UNL     1      -2.628   2.596   1.274  1.00  0.00     0.109 A   
ATOM     26  C15 UNL     1      -3.227   3.442   0.372  1.00  0.00     0.108 A   
ATOM     27  O1  UNL     1      -3.458   2.252   2.292  1.00  0.00    -0.316 OA  
ATOM     28  O2  UNL     1      -4.507   3.740   0.712  1.00  0.00    -0.316 OA  
ATOM     29  C18 UNL     1      -4.631   3.030   1.963  1.00  0.00     0.337 C   
ENDBRANCH  20  21
ENDBRANCH  17  20
ENDBRANCH  16  17
BRANCH  16  30
ATOM     30  C19 UNL     1      -0.049  -0.638  -2.782  1.00  0.00     0.043 C   
ATOM     31  C20 UNL     1       1.080  -0.596  -3.831  1.00  0.00     0.010 C   
ATOM     32  C24 UNL     1      -1.298   0.089  -3.318  1.00  0.00     0.010 C   
ATOM     33  C21 UNL     1       0.621  -1.166  -5.173  1.00  0.00     0.001 C   
ATOM     34  C23 UNL     1      -1.753  -0.484  -4.659  1.00  0.00     0.001 C   
ATOM     35  C22 UNL     1      -0.629  -0.463  -5.690  1.00  0.00     0.000 C   
ENDBRANCH  16  30
ENDBRANCH   3  16
TORSDOF 8
