REMARK SMILES CC(C)C[C@H]([NH2+]Cc1ccc2c(c1)OCO2)c1cn(Cc2cccc(OC(C)C)n2)nn1
REMARK SMILES IDX 17 1 18 2 19 3 31 4 32 5 5 7 4 8 2 9 1 10 3 11 6 12 7 15
REMARK SMILES IDX 8 16 9 17 13 18 10 19 12 20 11 21 14 22 16 23 15 24 20 25
REMARK SMILES IDX 21 26 22 27 30 28 23 29 25 30 24 31 26 32 27 33 28 34 29 35
REMARK H PARENT 18 6 6 13 6 14
ROOT
ATOM     1   C14 UNL     1      -1.215   0.174   1.709  1.00  0.00     0.127 A   
ATOM     2   C15 UNL     1       0.132   0.338   1.940  1.00  0.00     0.046 A   
ATOM     3   N2  UNL     1       0.429  -0.631   2.860  1.00  0.00    -0.206 N   
ATOM     4   N4  UNL     1      -0.671  -1.338   3.185  1.00  0.00    -0.076 NA  
ATOM     5   N5  UNL     1      -1.684  -0.856   2.483  1.00  0.00    -0.132 NA  
ATOM     6   H20 UNL     1       0.887   0.997   1.534  1.00  0.00     0.083 HD  
ENDROOT
BRANCH   1   7
ATOM     7   C5  UNL     1      -2.136   0.849   0.752  1.00  0.00     0.114 C   
BRANCH   7   8
ATOM     8   C4  UNL     1      -3.107   1.823   1.448  1.00  0.00     0.064 C   
BRANCH   8   9
ATOM     9   C2  UNL     1      -2.437   3.018   2.161  1.00  0.00    -0.012 C   
ATOM     10  C1  UNL     1      -3.503   3.859   2.869  1.00  0.00     0.007 C   
ATOM     11  C3  UNL     1      -1.641   3.900   1.198  1.00  0.00     0.007 C   
ENDBRANCH   8   9
ENDBRANCH   7   8
BRANCH   7  12
ATOM     12  N1  UNL     1      -2.986  -0.192   0.050  1.00  0.00     0.249 N   
ATOM     13  H11 UNL     1      -3.384  -0.784   0.793  1.00  0.00     0.199 HD  
ATOM     14  H12 UNL     1      -3.768   0.258  -0.433  1.00  0.00     0.199 HD  
BRANCH  12  15
ATOM     15  C6  UNL     1      -2.271  -1.091  -0.905  1.00  0.00     0.164 C   
BRANCH  15  16
ATOM     16  C7  UNL     1      -1.776  -0.366  -2.125  1.00  0.00    -0.002 A   
ATOM     17  C8  UNL     1      -2.686   0.068  -3.120  1.00  0.00     0.012 A   
ATOM     18  C12 UNL     1      -0.406  -0.082  -2.268  1.00  0.00     0.045 A   
ATOM     19  C9  UNL     1      -2.240   0.782  -4.238  1.00  0.00     0.037 A   
ATOM     20  C11 UNL     1      -0.002   0.627  -3.380  1.00  0.00     0.109 A   
ATOM     21  C10 UNL     1      -0.892   1.048  -4.337  1.00  0.00     0.108 A   
ATOM     22  O1  UNL     1       1.275   0.994  -3.663  1.00  0.00    -0.316 OA  
ATOM     23  O2  UNL     1      -0.288   1.728  -5.345  1.00  0.00    -0.316 OA  
ATOM     24  C13 UNL     1       1.094   1.663  -4.932  1.00  0.00     0.337 C   
ENDBRANCH  15  16
ENDBRANCH  12  15
ENDBRANCH   7  12
ENDBRANCH   1   7
BRANCH   3  25
ATOM     25  C16 UNL     1       1.719  -0.957   3.434  1.00  0.00     0.190 C   
BRANCH  25  26
ATOM     26  C17 UNL     1       2.450  -1.909   2.528  1.00  0.00     0.063 A   
ATOM     27  C18 UNL     1       2.380  -3.285   2.739  1.00  0.00     0.026 A   
ATOM     28  N3  UNL     1       3.129  -1.363   1.485  1.00  0.00    -0.228 NA  
ATOM     29  C19 UNL     1       3.040  -4.134   1.855  1.00  0.00     0.006 A   
ATOM     30  C21 UNL     1       3.774  -2.212   0.654  1.00  0.00     0.167 A   
ATOM     31  C20 UNL     1       3.748  -3.589   0.790  1.00  0.00     0.055 A   
BRANCH  30  32
ATOM     32  O3  UNL     1       4.466  -1.723  -0.434  1.00  0.00    -0.327 OA  
BRANCH  32  33
ATOM     33  C22 UNL     1       4.747  -0.318  -0.403  1.00  0.00     0.121 C   
ATOM     34  C23 UNL     1       6.063  -0.115  -1.150  1.00  0.00     0.039 C   
ATOM     35  C24 UNL     1       3.629   0.449  -1.105  1.00  0.00     0.039 C   
ENDBRANCH  32  33
ENDBRANCH  30  32
ENDBRANCH  25  26
ENDBRANCH   3  25
TORSDOF 10
