REMARK SMILES Cc1cc(O)c(Cn2cc([C@@H]([NH2+]Cc3ccc4c(c3)OCO4)C(C)(C)C)nn2)cc1C
REMARK SMILES IDX 8 1 9 2 10 3 27 4 28 5 7 7 6 8 2 9 3 10 30 11 4 12 29 13
REMARK SMILES IDX 1 14 31 15 5 16 11 18 12 19 13 22 14 23 15 24 19 25 16 26
REMARK SMILES IDX 18 27 17 28 20 29 22 30 21 31 23 32 24 33 25 34 26 35
REMARK H PARENT 9 6 5 17 12 20 12 21
ROOT
ATOM     1   N1  UNL     1      -1.455  -1.794  -1.562  1.00  0.00    -0.208 N   
ATOM     2   C7  UNL     1      -2.212  -1.140  -0.629  1.00  0.00     0.046 A   
ATOM     3   C8  UNL     1      -1.812   0.173  -0.735  1.00  0.00     0.127 A   
ATOM     4   N3  UNL     1      -0.845   0.271  -1.704  1.00  0.00    -0.132 NA  
ATOM     5   N4  UNL     1      -0.637  -0.935  -2.204  1.00  0.00    -0.076 NA  
ATOM     6   H8  UNL     1      -2.917  -1.660   0.005  1.00  0.00     0.083 HD  
ENDROOT
BRANCH   1   7
ATOM     7   C6  UNL     1      -1.451  -3.210  -1.887  1.00  0.00     0.172 C   
BRANCH   7   8
ATOM     8   C5  UNL     1      -0.561  -3.973  -0.943  1.00  0.00     0.002 A   
ATOM     9   C2  UNL     1       1.143  -5.378   0.821  1.00  0.00    -0.046 A   
ATOM     10  C3  UNL     1      -0.227  -5.247   1.099  1.00  0.00     0.037 A   
ATOM     11  C23 UNL     1       1.667  -4.797  -0.351  1.00  0.00    -0.048 A   
ATOM     12  C4  UNL     1      -1.060  -4.547   0.227  1.00  0.00     0.076 A   
ATOM     13  C22 UNL     1       0.809  -4.099  -1.217  1.00  0.00     0.011 A   
ATOM     14  C1  UNL     1       2.019  -6.146   1.773  1.00  0.00     0.045 C   
ATOM     15  C24 UNL     1       3.131  -4.908  -0.694  1.00  0.00     0.044 C   
BRANCH  12  16
ATOM     16  O1  UNL     1      -2.389  -4.408   0.514  1.00  0.00    -0.361 OA  
ATOM     17  H5  UNL     1      -2.611  -5.032   1.228  1.00  0.00     0.218 HD  
ENDBRANCH  12  16
ENDBRANCH   7   8
ENDBRANCH   1   7
BRANCH   3  18
ATOM     18  C9  UNL     1      -2.179   1.390   0.058  1.00  0.00     0.120 C   
BRANCH  18  19
ATOM     19  N2  UNL     1      -0.938   2.239   0.217  1.00  0.00     0.250 N   
ATOM     20  H10 UNL     1      -1.150   3.213   0.443  1.00  0.00     0.199 HD  
ATOM     21  H11 UNL     1      -0.475   2.251  -0.705  1.00  0.00     0.199 HD  
BRANCH  19  22
ATOM     22  C10 UNL     1       0.060   1.723   1.196  1.00  0.00     0.164 C   
BRANCH  22  23
ATOM     23  C11 UNL     1       1.299   2.572   1.173  1.00  0.00    -0.002 A   
ATOM     24  C12 UNL     1       2.356   2.260   0.284  1.00  0.00     0.012 A   
ATOM     25  C16 UNL     1       1.393   3.712   1.988  1.00  0.00     0.045 A   
ATOM     26  C13 UNL     1       3.496   3.067   0.212  1.00  0.00     0.037 A   
ATOM     27  C15 UNL     1       2.529   4.488   1.889  1.00  0.00     0.109 A   
ATOM     28  C14 UNL     1       3.551   4.175   1.027  1.00  0.00     0.108 A   
ATOM     29  O2  UNL     1       2.775   5.622   2.597  1.00  0.00    -0.316 OA  
ATOM     30  O3  UNL     1       4.572   5.070   1.088  1.00  0.00    -0.316 OA  
ATOM     31  C17 UNL     1       4.083   5.980   2.096  1.00  0.00     0.337 C   
ENDBRANCH  22  23
ENDBRANCH  19  22
ENDBRANCH  18  19
BRANCH  18  32
ATOM     32  C18 UNL     1      -3.345   2.237  -0.560  1.00  0.00     0.010 C   
ATOM     33  C19 UNL     1      -2.976   2.857  -1.923  1.00  0.00     0.017 C   
ATOM     34  C20 UNL     1      -3.744   3.381   0.402  1.00  0.00     0.017 C   
ATOM     35  C21 UNL     1      -4.600   1.355  -0.753  1.00  0.00     0.017 C   
ENDBRANCH  18  32
ENDBRANCH   3  18
TORSDOF 8
