REMARK SMILES CC(C)C[C@H]([NH2+]Cc1ccc2c(c1)OCO2)c1cn(Cc2ccc(F)c(F)c2F)nn1
REMARK SMILES IDX 17 1 18 2 19 3 30 4 31 5 5 7 4 8 2 9 1 10 3 11 6 12 7 15
REMARK SMILES IDX 8 16 9 17 13 18 10 19 12 20 11 21 14 22 16 23 15 24 20 25
REMARK SMILES IDX 21 26 22 27 28 28 23 29 26 30 24 31 29 32 27 33 25 34
REMARK H PARENT 18 6 6 13 6 14
ROOT
ATOM     1   C14 UNL     1      -1.845   0.755  -0.431  1.00  0.00     0.127 A   
ATOM     2   C15 UNL     1      -3.127   1.208  -0.207  1.00  0.00     0.046 A   
ATOM     3   N2  UNL     1      -3.787   0.114   0.280  1.00  0.00    -0.208 N   
ATOM     4   N3  UNL     1      -2.967  -0.953   0.341  1.00  0.00    -0.076 NA  
ATOM     5   N4  UNL     1      -1.773  -0.570  -0.080  1.00  0.00    -0.132 NA  
ATOM     6   H20 UNL     1      -3.610   2.168  -0.327  1.00  0.00     0.083 HD  
ENDROOT
BRANCH   1   7
ATOM     7   C5  UNL     1      -0.616   1.457  -0.916  1.00  0.00     0.114 C   
BRANCH   7   8
ATOM     8   C4  UNL     1      -0.783   2.161  -2.277  1.00  0.00     0.064 C   
BRANCH   8   9
ATOM     9   C2  UNL     1      -0.746   1.303  -3.562  1.00  0.00    -0.012 C   
ATOM     10  C1  UNL     1      -0.840   2.222  -4.786  1.00  0.00     0.007 C   
ATOM     11  C3  UNL     1      -1.855   0.255  -3.632  1.00  0.00     0.007 C   
ENDBRANCH   8   9
ENDBRANCH   7   8
BRANCH   7  12
ATOM     12  N1  UNL     1       0.545   0.506  -0.932  1.00  0.00     0.249 N   
ATOM     13  H11 UNL     1       0.408  -0.197  -1.669  1.00  0.00     0.199 HD  
ATOM     14  H12 UNL     1       0.472  -0.057  -0.070  1.00  0.00     0.199 HD  
BRANCH  12  15
ATOM     15  C6  UNL     1       1.904   1.090  -1.002  1.00  0.00     0.164 C   
BRANCH  15  16
ATOM     16  C7  UNL     1       2.946   0.009  -0.958  1.00  0.00    -0.002 A   
ATOM     17  C8  UNL     1       3.409  -0.587  -2.155  1.00  0.00     0.012 A   
ATOM     18  C12 UNL     1       3.428  -0.456   0.278  1.00  0.00     0.045 A   
ATOM     19  C9  UNL     1       4.347  -1.624  -2.126  1.00  0.00     0.037 A   
ATOM     20  C11 UNL     1       4.352  -1.480   0.271  1.00  0.00     0.109 A   
ATOM     21  C10 UNL     1       4.800  -2.048  -0.896  1.00  0.00     0.108 A   
ATOM     22  O1  UNL     1       4.916  -2.042   1.372  1.00  0.00    -0.316 OA  
ATOM     23  O2  UNL     1       5.703  -3.038  -0.678  1.00  0.00    -0.316 OA  
ATOM     24  C13 UNL     1       5.788  -3.022   0.763  1.00  0.00     0.337 C   
ENDBRANCH  15  16
ENDBRANCH  12  15
ENDBRANCH   7  12
ENDBRANCH   1   7
BRANCH   3  25
ATOM     25  C16 UNL     1      -5.176   0.007   0.692  1.00  0.00     0.172 C   
BRANCH  25  26
ATOM     26  C17 UNL     1      -5.322   0.234   2.173  1.00  0.00     0.011 A   
ATOM     27  C18 UNL     1      -5.454  -0.842   3.066  1.00  0.00     0.012 A   
ATOM     28  C22 UNL     1      -5.299   1.535   2.689  1.00  0.00     0.166 A   
ATOM     29  C19 UNL     1      -5.569  -0.607   4.439  1.00  0.00     0.043 A   
ATOM     30  C21 UNL     1      -5.410   1.770   4.055  1.00  0.00     0.194 A   
ATOM     31  C20 UNL     1      -5.546   0.698   4.924  1.00  0.00     0.161 A   
ATOM     32  F3  UNL     1      -5.153   2.571   1.849  1.00  0.00    -0.203 F   
ATOM     33  F2  UNL     1      -5.372   3.024   4.524  1.00  0.00    -0.201 F   
ATOM     34  F1  UNL     1      -5.647   0.909   6.243  1.00  0.00    -0.204 F   
ENDBRANCH  25  26
ENDBRANCH   3  25
TORSDOF 8
