REMARK SMILES COc1cccc(C)c1CCn1cc([C@@H]([NH2+]Cc2ccc3c(c2)OCO3)C(C)(C)C)nn1
REMARK SMILES IDX 12 1 13 2 14 3 31 4 32 5 11 7 10 8 9 9 3 10 4 11 5 12 7 13
REMARK SMILES IDX 6 14 8 15 2 16 1 17 15 18 16 19 17 22 18 23 19 24 23 25
REMARK SMILES IDX 20 26 22 27 21 28 24 29 26 30 25 31 27 32 28 33 29 34 30 35
REMARK H PARENT 13 6 16 20 16 21
ROOT
ATOM     1   N1  UNL     1       2.905  -0.966  -0.036  1.00  0.00    -0.212 N   
ATOM     2   C11 UNL     1       1.966  -1.707  -0.696  1.00  0.00     0.045 A   
ATOM     3   C12 UNL     1       1.135  -0.760  -1.252  1.00  0.00     0.127 A   
ATOM     4   N3  UNL     1       1.608   0.490  -0.951  1.00  0.00    -0.132 NA  
ATOM     5   N4  UNL     1       2.704   0.351  -0.223  1.00  0.00    -0.076 NA  
ATOM     6   H14 UNL     1       1.941  -2.787  -0.642  1.00  0.00     0.083 HD  
ENDROOT
BRANCH   1   7
ATOM     7   C10 UNL     1       3.918  -1.443   0.879  1.00  0.00     0.139 C   
BRANCH   7   8
ATOM     8   C9  UNL     1       3.628  -1.091   2.345  1.00  0.00     0.060 C   
BRANCH   8   9
ATOM     9   C8  UNL     1       2.213  -1.377   2.832  1.00  0.00    -0.013 A   
ATOM     10  C2  UNL     1       1.712  -2.693   2.817  1.00  0.00     0.078 A   
ATOM     11  C3  UNL     1       0.411  -2.982   3.240  1.00  0.00     0.034 A   
ATOM     12  C4  UNL     1      -0.397  -1.968   3.741  1.00  0.00     0.003 A   
ATOM     13  C6  UNL     1       1.380  -0.347   3.338  1.00  0.00    -0.045 A   
ATOM     14  C5  UNL     1       0.087  -0.662   3.798  1.00  0.00     0.004 A   
ATOM     15  C7  UNL     1       1.837   1.085   3.437  1.00  0.00     0.045 C   
BRANCH  10  16
ATOM     16  O1  UNL     1       2.495  -3.698   2.311  1.00  0.00    -0.349 OA  
ATOM     17  C1  UNL     1       2.876  -4.621   3.336  1.00  0.00     0.203 C   
ENDBRANCH  10  16
ENDBRANCH   8   9
ENDBRANCH   7   8
ENDBRANCH   1   7
BRANCH   3  18
ATOM     18  C13 UNL     1      -0.202  -0.911  -1.907  1.00  0.00     0.120 C   
BRANCH  18  19
ATOM     19  N2  UNL     1      -1.177  -0.012  -1.182  1.00  0.00     0.250 N   
ATOM     20  H16 UNL     1      -2.050   0.124  -1.699  1.00  0.00     0.199 HD  
ATOM     21  H17 UNL     1      -0.732   0.917  -1.127  1.00  0.00     0.199 HD  
BRANCH  19  22
ATOM     22  C14 UNL     1      -1.490  -0.424   0.217  1.00  0.00     0.164 C   
BRANCH  22  23
ATOM     23  C15 UNL     1      -2.475   0.526   0.835  1.00  0.00    -0.002 A   
ATOM     24  C16 UNL     1      -2.019   1.689   1.503  1.00  0.00     0.012 A   
ATOM     25  C20 UNL     1      -3.855   0.298   0.703  1.00  0.00     0.045 A   
ATOM     26  C17 UNL     1      -2.925   2.610   2.040  1.00  0.00     0.037 A   
ATOM     27  C19 UNL     1      -4.720   1.229   1.239  1.00  0.00     0.109 A   
ATOM     28  C18 UNL     1      -4.269   2.352   1.888  1.00  0.00     0.108 A   
ATOM     29  O2  UNL     1      -6.077   1.165   1.188  1.00  0.00    -0.316 OA  
ATOM     30  O3  UNL     1      -5.286   3.137   2.330  1.00  0.00    -0.316 OA  
ATOM     31  C21 UNL     1      -6.433   2.382   1.880  1.00  0.00     0.337 C   
ENDBRANCH  22  23
ENDBRANCH  19  22
ENDBRANCH  18  19
BRANCH  18  32
ATOM     32  C22 UNL     1      -0.214  -0.621  -3.447  1.00  0.00     0.010 C   
ATOM     33  C23 UNL     1       0.825  -1.519  -4.157  1.00  0.00     0.017 C   
ATOM     34  C24 UNL     1       0.100   0.849  -3.790  1.00  0.00     0.017 C   
ATOM     35  C25 UNL     1      -1.597  -0.969  -4.044  1.00  0.00     0.017 C   
ENDBRANCH  18  32
ENDBRANCH   3  18
TORSDOF 9
