REMARK SMILES CC(C)(C)[C@H]([NH2+]Cc1ccc2c(c1)OCO2)c1cn(CCc2ncccn2)nn1
REMARK SMILES IDX 17 1 18 2 19 3 28 4 29 5 5 7 2 8 1 9 3 10 4 11 6 12 7 15
REMARK SMILES IDX 8 16 9 17 13 18 10 19 12 20 11 21 14 22 16 23 15 24 20 25
REMARK SMILES IDX 21 26 22 27 23 28 27 29 24 30 26 31 25 32
REMARK H PARENT 18 6 6 13 6 14
ROOT
ATOM     1   C14 UNL     1      -0.841  -0.104  -2.284  1.00  0.00     0.127 A   
ATOM     2   C15 UNL     1      -0.398  -1.312  -2.776  1.00  0.00     0.045 A   
ATOM     3   N2  UNL     1       0.879  -1.050  -3.182  1.00  0.00    -0.212 N   
ATOM     4   N5  UNL     1       1.200   0.239  -2.974  1.00  0.00    -0.076 NA  
ATOM     5   N6  UNL     1       0.154   0.831  -2.424  1.00  0.00    -0.132 NA  
ATOM     6   H20 UNL     1      -0.833  -2.300  -2.833  1.00  0.00     0.083 HD  
ENDROOT
BRANCH   1   7
ATOM     7   C5  UNL     1      -2.100   0.272  -1.566  1.00  0.00     0.120 C   
BRANCH   7   8
ATOM     8   C2  UNL     1      -3.210   0.886  -2.487  1.00  0.00     0.010 C   
ATOM     9   C1  UNL     1      -2.794   2.236  -3.105  1.00  0.00     0.017 C   
ATOM     10  C3  UNL     1      -4.513   1.103  -1.683  1.00  0.00     0.017 C   
ATOM     11  C4  UNL     1      -3.547  -0.091  -3.636  1.00  0.00     0.017 C   
ENDBRANCH   7   8
BRANCH   7  12
ATOM     12  N1  UNL     1      -1.740   1.232  -0.456  1.00  0.00     0.250 N   
ATOM     13  H11 UNL     1      -1.101   1.929  -0.870  1.00  0.00     0.199 HD  
ATOM     14  H12 UNL     1      -2.546   1.754  -0.106  1.00  0.00     0.199 HD  
BRANCH  12  15
ATOM     15  C6  UNL     1      -1.020   0.624   0.700  1.00  0.00     0.164 C   
BRANCH  15  16
ATOM     16  C7  UNL     1      -0.629   1.686   1.688  1.00  0.00    -0.002 A   
ATOM     17  C8  UNL     1       0.597   2.377   1.536  1.00  0.00     0.012 A   
ATOM     18  C12 UNL     1      -1.500   2.041   2.731  1.00  0.00     0.045 A   
ATOM     19  C9  UNL     1       0.959   3.400   2.418  1.00  0.00     0.037 A   
ATOM     20  C11 UNL     1      -1.112   3.054   3.583  1.00  0.00     0.109 A   
ATOM     21  C10 UNL     1       0.082   3.715   3.432  1.00  0.00     0.108 A   
ATOM     22  O1  UNL     1      -1.833   3.518   4.637  1.00  0.00    -0.316 OA  
ATOM     23  O2  UNL     1       0.265   4.676   4.374  1.00  0.00    -0.316 OA  
ATOM     24  C13 UNL     1      -0.943   4.536   5.151  1.00  0.00     0.337 C   
ENDBRANCH  15  16
ENDBRANCH  12  15
ENDBRANCH   7  12
ENDBRANCH   1   7
BRANCH   3  25
ATOM     25  C16 UNL     1       1.860  -1.972  -3.717  1.00  0.00     0.142 C   
BRANCH  25  26
ATOM     26  C17 UNL     1       2.795  -2.504  -2.641  1.00  0.00     0.098 C   
BRANCH  26  27
ATOM     27  C18 UNL     1       2.082  -3.460  -1.727  1.00  0.00     0.129 A   
ATOM     28  N3  UNL     1       1.825  -4.690  -2.208  1.00  0.00    -0.241 NA  
ATOM     29  N4  UNL     1       1.714  -3.024  -0.506  1.00  0.00    -0.241 NA  
ATOM     30  C19 UNL     1       1.230  -5.556  -1.366  1.00  0.00     0.115 A   
ATOM     31  C21 UNL     1       1.134  -3.937   0.299  1.00  0.00     0.115 A   
ATOM     32  C20 UNL     1       0.864  -5.230  -0.083  1.00  0.00     0.040 A   
ENDBRANCH  26  27
ENDBRANCH  25  26
ENDBRANCH   3  25
TORSDOF 8
