REMARK SMILES Cc1ccc(CCn2cc([C@@H]([NH2+]Cc3ccc4c(c3)OCO4)C(C)(C)C)nn2)cc1
REMARK SMILES IDX 8 1 9 2 10 3 27 4 28 5 7 7 6 8 5 9 2 10 3 11 30 12 4 13
REMARK SMILES IDX 29 14 1 15 11 16 12 17 13 20 14 21 15 22 19 23 16 24 18 25
REMARK SMILES IDX 17 26 20 27 22 28 21 29 23 30 24 31 25 32 26 33
REMARK H PARENT 9 6 12 18 12 19
ROOT
ATOM     1   N1  UNL     1      -1.964   1.823  -2.162  1.00  0.00    -0.212 N   
ATOM     2   C8  UNL     1      -1.625   1.710  -0.845  1.00  0.00     0.045 A   
ATOM     3   C9  UNL     1      -0.276   1.983  -0.823  1.00  0.00     0.127 A   
ATOM     4   N3  UNL     1       0.148   2.249  -2.098  1.00  0.00    -0.132 NA  
ATOM     5   N4  UNL     1      -0.896   2.162  -2.906  1.00  0.00    -0.076 NA  
ATOM     6   H10 UNL     1      -2.338   1.425  -0.084  1.00  0.00     0.083 HD  
ENDROOT
BRANCH   1   7
ATOM     7   C7  UNL     1      -3.252   1.567  -2.775  1.00  0.00     0.139 C   
BRANCH   7   8
ATOM     8   C6  UNL     1      -3.235   0.394  -3.755  1.00  0.00     0.057 C   
BRANCH   8   9
ATOM     9   C5  UNL     1      -2.747  -0.902  -3.143  1.00  0.00    -0.046 A   
ATOM     10  C2  UNL     1      -1.815  -3.314  -2.024  1.00  0.00    -0.051 A   
ATOM     11  C3  UNL     1      -1.034  -2.615  -2.949  1.00  0.00     0.004 A   
ATOM     12  C24 UNL     1      -3.072  -2.807  -1.674  1.00  0.00     0.004 A   
ATOM     13  C4  UNL     1      -1.492  -1.415  -3.496  1.00  0.00     0.004 A   
ATOM     14  C23 UNL     1      -3.535  -1.610  -2.228  1.00  0.00     0.004 A   
ATOM     15  C1  UNL     1      -1.340  -4.626  -1.475  1.00  0.00     0.044 C   
ENDBRANCH   8   9
ENDBRANCH   7   8
ENDBRANCH   1   7
BRANCH   3  16
ATOM     16  C10 UNL     1       0.719   1.920   0.295  1.00  0.00     0.120 C   
BRANCH  16  17
ATOM     17  N2  UNL     1       1.976   1.228  -0.199  1.00  0.00     0.250 N   
ATOM     18  H12 UNL     1       2.729   1.300   0.488  1.00  0.00     0.199 HD  
ATOM     19  H13 UNL     1       2.271   1.737  -1.041  1.00  0.00     0.199 HD  
BRANCH  17  20
ATOM     20  C11 UNL     1       1.833  -0.207  -0.597  1.00  0.00     0.164 C   
BRANCH  20  21
ATOM     21  C12 UNL     1       1.456  -1.103   0.547  1.00  0.00    -0.002 A   
ATOM     22  C13 UNL     1       0.132  -1.589   0.659  1.00  0.00     0.012 A   
ATOM     23  C17 UNL     1       2.403  -1.444   1.527  1.00  0.00     0.045 A   
ATOM     24  C14 UNL     1      -0.248  -2.402   1.728  1.00  0.00     0.037 A   
ATOM     25  C16 UNL     1       1.995  -2.245   2.570  1.00  0.00     0.109 A   
ATOM     26  C15 UNL     1       0.707  -2.709   2.668  1.00  0.00     0.108 A   
ATOM     27  O1  UNL     1       2.779  -2.664   3.597  1.00  0.00    -0.316 OA  
ATOM     28  O2  UNL     1       0.517  -3.479   3.769  1.00  0.00    -0.316 OA  
ATOM     29  C18 UNL     1       1.841  -3.467   4.348  1.00  0.00     0.337 C   
ENDBRANCH  20  21
ENDBRANCH  17  20
ENDBRANCH  16  17
BRANCH  16  30
ATOM     30  C19 UNL     1       1.073   3.317   0.919  1.00  0.00     0.010 C   
ATOM     31  C20 UNL     1      -0.216   4.008   1.428  1.00  0.00     0.017 C   
ATOM     32  C21 UNL     1       2.001   3.142   2.143  1.00  0.00     0.017 C   
ATOM     33  C22 UNL     1       1.769   4.270  -0.078  1.00  0.00     0.017 C   
ENDBRANCH  16  30
ENDBRANCH   3  16
TORSDOF 8
