REMARK SMILES COc1cccc(CCn2cc([C@@H]([NH2+]Cc3ccc4c(c3)OCO4)C3CCCCC3)nn2)c1
REMARK SMILES IDX 10 1 11 2 12 3 31 4 32 5 9 7 8 8 7 9 3 10 4 11 33 12 5 13
REMARK SMILES IDX 6 14 2 15 1 16 13 17 14 18 15 21 16 22 17 23 21 24 18 25
REMARK SMILES IDX 20 26 19 27 22 28 24 29 23 30 25 31 26 32 30 33 27 34 29 35
REMARK SMILES IDX 28 36
REMARK H PARENT 11 6 14 19 14 20
ROOT
ATOM     1   N1  UNL     1      -2.422   2.524  -0.719  1.00  0.00    -0.212 N   
ATOM     2   C9  UNL     1      -1.229   2.082  -0.215  1.00  0.00     0.045 A   
ATOM     3   C10 UNL     1      -0.636   1.448  -1.284  1.00  0.00     0.127 A   
ATOM     4   N3  UNL     1      -1.427   1.603  -2.394  1.00  0.00    -0.132 NA  
ATOM     5   N4  UNL     1      -2.500   2.294  -2.043  1.00  0.00    -0.076 NA  
ATOM     6   H11 UNL     1      -0.982   2.152   0.835  1.00  0.00     0.083 HD  
ENDROOT
BRANCH   1   7
ATOM     7   C8  UNL     1      -3.601   2.904   0.035  1.00  0.00     0.139 C   
BRANCH   7   8
ATOM     8   C7  UNL     1      -4.653   1.784   0.094  1.00  0.00     0.057 C   
BRANCH   8   9
ATOM     9   C6  UNL     1      -4.080   0.463   0.563  1.00  0.00    -0.044 A   
ATOM     10  C2  UNL     1      -2.963  -1.625   0.035  1.00  0.00     0.075 A   
ATOM     11  C3  UNL     1      -2.786  -1.888   1.391  1.00  0.00     0.033 A   
ATOM     12  C26 UNL     1      -3.610  -0.465  -0.380  1.00  0.00     0.037 A   
ATOM     13  C4  UNL     1      -3.279  -0.986   2.335  1.00  0.00     0.003 A   
ATOM     14  C5  UNL     1      -3.918   0.188   1.925  1.00  0.00     0.004 A   
BRANCH  10  15
ATOM     15  O1  UNL     1      -2.420  -2.431  -0.932  1.00  0.00    -0.349 OA  
ATOM     16  C1  UNL     1      -3.126  -3.680  -0.975  1.00  0.00     0.203 C   
ENDBRANCH  10  15
ENDBRANCH   8   9
ENDBRANCH   7   8
ENDBRANCH   1   7
BRANCH   3  17
ATOM     17  C11 UNL     1       0.569   0.564  -1.336  1.00  0.00     0.117 C   
BRANCH  17  18
ATOM     18  N2  UNL     1       0.139  -0.765  -1.914  1.00  0.00     0.249 N   
ATOM     19  H13 UNL     1      -0.682  -1.084  -1.372  1.00  0.00     0.199 HD  
ATOM     20  H14 UNL     1      -0.253  -0.582  -2.848  1.00  0.00     0.199 HD  
BRANCH  18  21
ATOM     21  C12 UNL     1       1.111  -1.885  -1.962  1.00  0.00     0.164 C   
BRANCH  21  22
ATOM     22  C13 UNL     1       1.594  -2.323  -0.606  1.00  0.00    -0.002 A   
ATOM     23  C14 UNL     1       0.786  -3.155   0.205  1.00  0.00     0.012 A   
ATOM     24  C18 UNL     1       2.838  -1.889  -0.115  1.00  0.00     0.045 A   
ATOM     25  C15 UNL     1       1.194  -3.536   1.487  1.00  0.00     0.037 A   
ATOM     26  C17 UNL     1       3.212  -2.280   1.154  1.00  0.00     0.109 A   
ATOM     27  C16 UNL     1       2.412  -3.077   1.935  1.00  0.00     0.108 A   
ATOM     28  O2  UNL     1       4.370  -1.938   1.777  1.00  0.00    -0.316 OA  
ATOM     29  O3  UNL     1       2.965  -3.338   3.148  1.00  0.00    -0.316 OA  
ATOM     30  C19 UNL     1       4.220  -2.634   3.036  1.00  0.00     0.337 C   
ENDBRANCH  21  22
ENDBRANCH  18  21
ENDBRANCH  17  18
BRANCH  17  31
ATOM     31  C20 UNL     1       1.767   1.171  -2.113  1.00  0.00     0.043 C   
ATOM     32  C21 UNL     1       2.260   2.474  -1.450  1.00  0.00     0.010 C   
ATOM     33  C25 UNL     1       1.522   1.402  -3.617  1.00  0.00     0.010 C   
ATOM     34  C22 UNL     1       3.504   3.023  -2.146  1.00  0.00     0.001 C   
ATOM     35  C24 UNL     1       2.769   1.954  -4.308  1.00  0.00     0.001 C   
ATOM     36  C23 UNL     1       3.269   3.230  -3.638  1.00  0.00     0.000 C   
ENDBRANCH  17  31
ENDBRANCH   3  17
TORSDOF 9
