REMARK SMILES CC(C)C[C@H]([NH2+]Cc1ccc2c(c1)OCO2)c1cn(Cc2cccc(N([O-])[O-])c2)nn1
REMARK SMILES IDX 17 1 18 2 19 3 30 4 31 5 5 7 4 8 2 9 1 10 3 11 6 12 7 15
REMARK SMILES IDX 8 16 9 17 13 18 10 19 12 20 11 21 14 22 16 23 15 24 20 25
REMARK SMILES IDX 21 26 22 27 29 28 23 29 25 30 24 31 26 32 27 33 28 34
REMARK H PARENT 18 6 6 13 6 14
ROOT
ATOM     1   C14 UNL     1       1.249   1.237   0.515  1.00  0.00     0.127 A   
ATOM     2   C15 UNL     1       1.502  -0.059   0.912  1.00  0.00     0.046 A   
ATOM     3   N2  UNL     1       1.912   0.066   2.211  1.00  0.00    -0.208 N   
ATOM     4   N4  UNL     1       1.931   1.360   2.583  1.00  0.00    -0.076 NA  
ATOM     5   N5  UNL     1       1.540   2.087   1.549  1.00  0.00    -0.132 NA  
ATOM     6   H20 UNL     1       1.393  -1.019   0.428  1.00  0.00     0.083 HD  
ENDROOT
BRANCH   1   7
ATOM     7   C5  UNL     1       0.678   1.774  -0.754  1.00  0.00     0.114 C   
BRANCH   7   8
ATOM     8   C4  UNL     1       1.761   2.328  -1.702  1.00  0.00     0.064 C   
BRANCH   8   9
ATOM     9   C2  UNL     1       2.785   1.291  -2.212  1.00  0.00    -0.012 C   
ATOM     10  C1  UNL     1       3.833   1.988  -3.084  1.00  0.00     0.007 C   
ATOM     11  C3  UNL     1       2.127   0.160  -3.003  1.00  0.00     0.007 C   
ENDBRANCH   8   9
ENDBRANCH   7   8
BRANCH   7  12
ATOM     12  N1  UNL     1      -0.284   2.919  -0.484  1.00  0.00     0.249 N   
ATOM     13  H11 UNL     1      -0.611   3.308  -1.373  1.00  0.00     0.199 HD  
ATOM     14  H12 UNL     1       0.259   3.653  -0.008  1.00  0.00     0.199 HD  
BRANCH  12  15
ATOM     15  C6  UNL     1      -1.467   2.630   0.385  1.00  0.00     0.164 C   
BRANCH  15  16
ATOM     16  C7  UNL     1      -2.286   1.454  -0.069  1.00  0.00    -0.002 A   
ATOM     17  C8  UNL     1      -3.070   1.519  -1.244  1.00  0.00     0.012 A   
ATOM     18  C12 UNL     1      -2.254   0.262   0.675  1.00  0.00     0.045 A   
ATOM     19  C9  UNL     1      -3.807   0.409  -1.674  1.00  0.00     0.037 A   
ATOM     20  C11 UNL     1      -2.990  -0.813   0.225  1.00  0.00     0.109 A   
ATOM     21  C10 UNL     1      -3.745  -0.741  -0.918  1.00  0.00     0.108 A   
ATOM     22  O1  UNL     1      -3.057  -2.032   0.821  1.00  0.00    -0.316 OA  
ATOM     23  O2  UNL     1      -4.391  -1.907  -1.184  1.00  0.00    -0.316 OA  
ATOM     24  C13 UNL     1      -4.005  -2.702  -0.042  1.00  0.00     0.337 C   
ENDBRANCH  15  16
ENDBRANCH  12  15
ENDBRANCH   7  12
ENDBRANCH   1   7
BRANCH   3  25
ATOM     25  C16 UNL     1       2.215  -0.989   3.169  1.00  0.00     0.169 C   
BRANCH  25  26
ATOM     26  C17 UNL     1       1.019  -1.886   3.400  1.00  0.00    -0.026 A   
ATOM     27  C18 UNL     1       1.124  -3.274   3.216  1.00  0.00     0.005 A   
ATOM     28  C22 UNL     1      -0.214  -1.350   3.808  1.00  0.00     0.036 A   
ATOM     29  C19 UNL     1       0.017  -4.107   3.408  1.00  0.00     0.003 A   
ATOM     30  C21 UNL     1      -1.327  -2.189   3.972  1.00  0.00     0.118 A   
ATOM     31  C20 UNL     1      -1.216  -3.569   3.778  1.00  0.00     0.031 A   
BRANCH  30  32
ATOM     32  N3  UNL     1      -2.628  -1.602   4.311  1.00  0.00     0.092 N   
ATOM     33  O3  UNL     1      -2.750  -0.375   4.170  1.00  0.00    -0.138 OA  
ATOM     34  O4  UNL     1      -3.524  -2.364   4.698  1.00  0.00    -0.138 OA  
ENDBRANCH  30  32
ENDBRANCH  25  26
ENDBRANCH   3  25
TORSDOF 9
