REMARK SMILES Clc1ncccc1CCn1cc([C@@H]([NH2+]Cc2ccc3c(c2)OCO3)C2CCCC2)nn1
REMARK SMILES IDX 10 1 11 2 12 3 30 4 31 5 9 7 8 8 7 9 2 10 3 11 4 12 6 13
REMARK SMILES IDX 5 14 1 15 13 16 14 17 15 20 16 21 17 22 21 23 18 24 20 25
REMARK SMILES IDX 19 26 22 27 24 28 23 29 25 30 26 31 29 32 27 33 28 34
REMARK H PARENT 11 6 14 18 14 19
ROOT
ATOM     1   N2  UNL     1       1.867  -1.814   1.889  1.00  0.00    -0.212 N   
ATOM     2   C8  UNL     1       1.518  -1.590   0.584  1.00  0.00     0.045 A   
ATOM     3   C9  UNL     1       1.217  -0.243   0.561  1.00  0.00     0.127 A   
ATOM     4   N4  UNL     1       1.564   0.315   1.764  1.00  0.00    -0.132 NA  
ATOM     5   N5  UNL     1       1.995  -0.651   2.556  1.00  0.00    -0.076 NA  
ATOM     6   H8  UNL     1       1.356  -2.396  -0.118  1.00  0.00     0.083 HD  
ENDROOT
BRANCH   1   7
ATOM     7   C7  UNL     1       1.737  -3.054   2.633  1.00  0.00     0.139 C   
BRANCH   7   8
ATOM     8   C6  UNL     1       0.276  -3.525   2.784  1.00  0.00     0.060 C   
BRANCH   8   9
ATOM     9   C5  UNL     1      -0.678  -2.413   3.166  1.00  0.00    -0.009 A   
ATOM     10  C1  UNL     1      -1.506  -1.759   2.251  1.00  0.00     0.132 A   
ATOM     11  N1  UNL     1      -2.154  -0.590   2.485  1.00  0.00    -0.244 NA  
ATOM     12  C2  UNL     1      -2.112  -0.139   3.759  1.00  0.00     0.113 A   
ATOM     13  C4  UNL     1      -0.652  -1.891   4.464  1.00  0.00     0.008 A   
ATOM     14  C3  UNL     1      -1.395  -0.753   4.771  1.00  0.00     0.020 A   
ATOM     15  CL1 UNL     1      -1.758  -2.311   0.639  1.00  0.00    -0.062 Cl  
ENDBRANCH   8   9
ENDBRANCH   7   8
ENDBRANCH   1   7
BRANCH   3  16
ATOM     16  C10 UNL     1       0.440   0.570  -0.429  1.00  0.00     0.117 C   
BRANCH  16  17
ATOM     17  N3  UNL     1      -0.620   1.316   0.352  1.00  0.00     0.249 N   
ATOM     18  H10 UNL     1      -1.129   0.621   0.929  1.00  0.00     0.199 HD  
ATOM     19  H11 UNL     1      -0.132   1.888   1.054  1.00  0.00     0.199 HD  
BRANCH  17  20
ATOM     20  C11 UNL     1      -1.633   2.122  -0.367  1.00  0.00     0.164 C   
BRANCH  20  21
ATOM     21  C12 UNL     1      -2.555   1.304  -1.225  1.00  0.00    -0.002 A   
ATOM     22  C13 UNL     1      -2.379   1.252  -2.628  1.00  0.00     0.012 A   
ATOM     23  C17 UNL     1      -3.593   0.564  -0.633  1.00  0.00     0.045 A   
ATOM     24  C14 UNL     1      -3.219   0.472  -3.430  1.00  0.00     0.037 A   
ATOM     25  C16 UNL     1      -4.405  -0.192  -1.452  1.00  0.00     0.109 A   
ATOM     26  C15 UNL     1      -4.222  -0.239  -2.811  1.00  0.00     0.108 A   
ATOM     27  O1  UNL     1      -5.450  -0.955  -1.041  1.00  0.00    -0.316 OA  
ATOM     28  O2  UNL     1      -5.127  -1.043  -3.429  1.00  0.00    -0.316 OA  
ATOM     29  C18 UNL     1      -5.905  -1.498  -2.301  1.00  0.00     0.337 C   
ENDBRANCH  20  21
ENDBRANCH  17  20
ENDBRANCH  16  17
BRANCH  16  30
ATOM     30  C19 UNL     1       1.292   1.534  -1.272  1.00  0.00     0.043 C   
ATOM     31  C20 UNL     1       2.423   0.860  -2.056  1.00  0.00     0.010 C   
ATOM     32  C23 UNL     1       2.037   2.643  -0.528  1.00  0.00     0.010 C   
ATOM     33  C21 UNL     1       3.286   2.025  -2.535  1.00  0.00     0.001 C   
ATOM     34  C22 UNL     1       3.025   3.176  -1.563  1.00  0.00     0.001 C   
ENDBRANCH  16  30
ENDBRANCH   3  16
TORSDOF 8
