REMARK SMILES Fc1cccc(-n2cc([C@@H]([NH2+]Cc3ccc4c(c3)OCO4)C3CCCCC3)nn2)c1F
REMARK SMILES IDX 10 1 9 2 7 3 8 4 29 5 28 6 6 7 2 8 3 9 30 10 4 11 5 12 1 13
REMARK SMILES IDX 31 14 11 15 12 18 13 19 14 20 18 21 15 22 17 23 16 24 19 25
REMARK SMILES IDX 21 26 20 27 22 28 23 29 27 30 24 31 26 32 25 33
REMARK H PARENT 11 16 11 17
ROOT
ATOM     1   C8  UNL     1      -0.299  -0.185  -0.512  1.00  0.00     0.117 C   
ENDROOT
BRANCH   1   2
ATOM     2   C7  UNL     1      -0.971  -1.510  -0.698  1.00  0.00     0.127 A   
ATOM     3   N1  UNL     1      -1.600  -3.610  -0.813  1.00  0.00    -0.178 N   
ATOM     4   C6  UNL     1      -0.582  -2.789  -0.367  1.00  0.00     0.135 A   
ATOM     5   N4  UNL     1      -2.536  -2.835  -1.426  1.00  0.00    -0.071 NA  
ATOM     6   N3  UNL     1      -2.165  -1.568  -1.359  1.00  0.00    -0.131 NA  
BRANCH   3   7
ATOM     7   C5  UNL     1      -1.750  -5.014  -0.721  1.00  0.00     0.096 A   
ATOM     8   C1  UNL     1      -0.968  -7.194  -0.028  1.00  0.00     0.160 A   
ATOM     9   C2  UNL     1      -2.098  -7.799  -0.564  1.00  0.00     0.042 A   
ATOM     10  C23 UNL     1      -0.789  -5.814  -0.102  1.00  0.00     0.182 A   
ATOM     11  C3  UNL     1      -3.066  -7.012  -1.184  1.00  0.00     0.005 A   
ATOM     12  C4  UNL     1      -2.896  -5.625  -1.264  1.00  0.00     0.029 A   
ATOM     13  F1  UNL     1      -0.040  -7.953   0.569  1.00  0.00    -0.204 F   
ATOM     14  F2  UNL     1       0.324  -5.292   0.434  1.00  0.00    -0.202 F   
ENDBRANCH   3   7
ENDBRANCH   1   2
BRANCH   1  15
ATOM     15  N2  UNL     1      -0.859   0.800  -1.524  1.00  0.00     0.249 N   
ATOM     16  H6  UNL     1      -1.606   0.300  -2.035  1.00  0.00     0.199 HD  
ATOM     17  H7  UNL     1      -1.338   1.572  -1.050  1.00  0.00     0.199 HD  
BRANCH  15  18
ATOM     18  C9  UNL     1       0.105   1.353  -2.511  1.00  0.00     0.164 C   
BRANCH  18  19
ATOM     19  C10 UNL     1       1.044   2.350  -1.891  1.00  0.00    -0.002 A   
ATOM     20  C11 UNL     1       0.592   3.657  -1.583  1.00  0.00     0.012 A   
ATOM     21  C15 UNL     1       2.362   1.982  -1.571  1.00  0.00     0.045 A   
ATOM     22  C12 UNL     1       1.438   4.583  -0.961  1.00  0.00     0.037 A   
ATOM     23  C14 UNL     1       3.168   2.918  -0.955  1.00  0.00     0.109 A   
ATOM     24  C13 UNL     1       2.719   4.181  -0.658  1.00  0.00     0.108 A   
ATOM     25  O1  UNL     1       4.456   2.720  -0.571  1.00  0.00    -0.316 OA  
ATOM     26  O2  UNL     1       3.670   4.939  -0.055  1.00  0.00    -0.316 OA  
ATOM     27  C16 UNL     1       4.782   4.019  -0.025  1.00  0.00     0.337 C   
ENDBRANCH  18  19
ENDBRANCH  15  18
ENDBRANCH   1  15
BRANCH   1  28
ATOM     28  C17 UNL     1      -0.437   0.426   0.906  1.00  0.00     0.043 C   
ATOM     29  C18 UNL     1      -1.892   0.534   1.406  1.00  0.00     0.010 C   
ATOM     30  C22 UNL     1       0.421  -0.331   1.938  1.00  0.00     0.010 C   
ATOM     31  C19 UNL     1      -1.961   1.188   2.787  1.00  0.00     0.001 C   
ATOM     32  C21 UNL     1       0.351   0.326   3.316  1.00  0.00     0.001 C   
ATOM     33  C20 UNL     1      -1.089   0.457   3.802  1.00  0.00     0.000 C   
ENDBRANCH   1  28
TORSDOF 6
