REMARK SMILES OCc1cc(CO)cc(-n2cc([C@@H]([NH2+]Cc3ccc4c(c3)OCO4)C3CCCCC3)nn2)c1
REMARK SMILES IDX 10 1 11 2 12 3 31 4 32 5 9 6 3 7 4 8 33 9 5 10 8 11 2 12
REMARK SMILES IDX 1 13 6 15 7 16 13 18 14 19 15 22 16 23 17 24 21 25 18 26
REMARK SMILES IDX 20 27 19 28 22 29 24 30 23 31 25 32 26 33 30 34 27 35 29 36
REMARK SMILES IDX 28 37
REMARK H PARENT 1 14 7 17 14 20 14 21
ROOT
ATOM     1   N1  UNL     1      -0.935  -1.626   1.304  1.00  0.00    -0.181 N   
ATOM     2   C8  UNL     1       0.021  -0.956   0.565  1.00  0.00     0.135 A   
ATOM     3   C9  UNL     1      -0.600   0.193   0.130  1.00  0.00     0.127 A   
ATOM     4   N3  UNL     1      -1.888   0.203   0.584  1.00  0.00    -0.131 NA  
ATOM     5   N4  UNL     1      -2.086  -0.904   1.278  1.00  0.00    -0.071 NA  
ENDROOT
BRANCH   1   6
ATOM     6   C7  UNL     1      -0.835  -2.860   1.993  1.00  0.00     0.058 A   
ATOM     7   C2  UNL     1      -1.877  -4.588   3.358  1.00  0.00    -0.020 A   
ATOM     8   C3  UNL     1      -0.666  -5.294   3.365  1.00  0.00     0.012 A   
ATOM     9   C25 UNL     1      -1.952  -3.368   2.669  1.00  0.00     0.032 A   
ATOM     10  C4  UNL     1       0.468  -4.794   2.707  1.00  0.00    -0.020 A   
ATOM     11  C6  UNL     1       0.368  -3.579   2.009  1.00  0.00     0.032 A   
BRANCH   7  12
ATOM     12  C1  UNL     1      -3.090  -5.124   4.072  1.00  0.00     0.191 C   
BRANCH  12  13
ATOM     13  O1  UNL     1      -4.107  -5.436   3.130  1.00  0.00    -0.392 OA  
ATOM     14  H1  UNL     1      -3.675  -5.832   2.354  1.00  0.00     0.211 HD  
ENDBRANCH  12  13
ENDBRANCH   7  12
BRANCH  10  15
ATOM     15  C5  UNL     1       1.748  -5.593   2.728  1.00  0.00     0.191 C   
BRANCH  15  16
ATOM     16  O2  UNL     1       2.873  -4.761   2.466  1.00  0.00    -0.392 OA  
ATOM     17  H7  UNL     1       3.662  -5.293   2.671  1.00  0.00     0.211 HD  
ENDBRANCH  15  16
ENDBRANCH  10  15
ENDBRANCH   1   6
BRANCH   3  18
ATOM     18  C10 UNL     1      -0.108   1.323  -0.719  1.00  0.00     0.117 C   
BRANCH  18  19
ATOM     19  N2  UNL     1      -1.268   2.022  -1.390  1.00  0.00     0.249 N   
ATOM     20  H11 UNL     1      -1.990   2.133  -0.664  1.00  0.00     0.199 HD  
ATOM     21  H12 UNL     1      -1.008   2.961  -1.697  1.00  0.00     0.199 HD  
BRANCH  19  22
ATOM     22  C11 UNL     1      -1.908   1.297  -2.528  1.00  0.00     0.164 C   
BRANCH  22  23
ATOM     23  C12 UNL     1      -1.015   1.198  -3.733  1.00  0.00    -0.002 A   
ATOM     24  C13 UNL     1      -0.747   2.340  -4.526  1.00  0.00     0.012 A   
ATOM     25  C17 UNL     1      -0.417  -0.030  -4.066  1.00  0.00     0.045 A   
ATOM     26  C14 UNL     1       0.105   2.261  -5.634  1.00  0.00     0.037 A   
ATOM     27  C16 UNL     1       0.421  -0.073  -5.162  1.00  0.00     0.109 A   
ATOM     28  C15 UNL     1       0.675   1.040  -5.924  1.00  0.00     0.108 A   
ATOM     29  O3  UNL     1       1.079  -1.173  -5.612  1.00  0.00    -0.316 OA  
ATOM     30  O4  UNL     1       1.523   0.781  -6.954  1.00  0.00    -0.316 OA  
ATOM     31  C18 UNL     1       1.762  -0.631  -6.766  1.00  0.00     0.337 C   
ENDBRANCH  22  23
ENDBRANCH  19  22
ENDBRANCH  18  19
BRANCH  18  32
ATOM     32  C19 UNL     1       0.736   2.342   0.097  1.00  0.00     0.043 C   
ATOM     33  C20 UNL     1       1.529   3.289  -0.825  1.00  0.00     0.010 C   
ATOM     34  C24 UNL     1      -0.080   3.155   1.122  1.00  0.00     0.010 C   
ATOM     35  C21 UNL     1       2.413   4.245  -0.026  1.00  0.00     0.001 C   
ATOM     36  C23 UNL     1       0.810   4.111   1.916  1.00  0.00     0.001 C   
ATOM     37  C22 UNL     1       1.604   5.034   0.998  1.00  0.00     0.000 C   
ENDBRANCH  18  32
ENDBRANCH   3  18
TORSDOF 10
