REMARK SMILES COc1cccc(C(=O)Cn2cc([C@@H]([NH2+]Cc3ccc4c(c3)OCO4)C3CCCC3)nn2)c1
REMARK SMILES IDX 11 1 12 2 13 3 31 4 32 5 10 7 8 8 9 9 7 10 3 11 4 12 33 13
REMARK SMILES IDX 5 14 6 15 2 16 1 17 14 18 15 19 16 22 17 23 18 24 22 25
REMARK SMILES IDX 19 26 21 27 20 28 23 29 25 30 24 31 26 32 27 33 30 34 28 35
REMARK SMILES IDX 29 36
REMARK H PARENT 12 6 15 20 15 21
ROOT
ATOM     1   N1  UNL     1      -1.024  -0.089  -1.548  1.00  0.00    -0.204 N   
ATOM     2   C9  UNL     1      -1.359   0.331  -0.289  1.00  0.00     0.046 A   
ATOM     3   C10 UNL     1      -0.474   1.355  -0.036  1.00  0.00     0.127 A   
ATOM     4   N3  UNL     1       0.303   1.563  -1.146  1.00  0.00    -0.132 NA  
ATOM     5   N4  UNL     1      -0.051   0.680  -2.070  1.00  0.00    -0.076 NA  
ATOM     6   H9  UNL     1      -2.120  -0.162   0.300  1.00  0.00     0.083 HD  
ENDROOT
BRANCH   1   7
ATOM     7   C8  UNL     1      -1.563  -1.222  -2.277  1.00  0.00     0.214 C   
BRANCH   7   8
ATOM     8   C7  UNL     1      -1.214  -2.520  -1.581  1.00  0.00     0.182 C   
ATOM     9   O2  UNL     1      -0.319  -2.595  -0.737  1.00  0.00    -0.292 OA  
BRANCH   8  10
ATOM     10  C6  UNL     1      -2.013  -3.741  -1.905  1.00  0.00     0.022 A   
ATOM     11  C2  UNL     1      -2.678  -5.990  -1.250  1.00  0.00     0.075 A   
ATOM     12  C3  UNL     1      -3.485  -6.072  -2.383  1.00  0.00     0.033 A   
ATOM     13  C25 UNL     1      -1.936  -4.828  -1.025  1.00  0.00     0.045 A   
ATOM     14  C4  UNL     1      -3.565  -4.992  -3.268  1.00  0.00     0.003 A   
ATOM     15  C5  UNL     1      -2.830  -3.827  -3.036  1.00  0.00     0.012 A   
BRANCH  11  16
ATOM     16  O1  UNL     1      -2.518  -6.958  -0.301  1.00  0.00    -0.349 OA  
ATOM     17  C1  UNL     1      -3.328  -8.122  -0.418  1.00  0.00     0.203 C   
ENDBRANCH  11  16
ENDBRANCH   8  10
ENDBRANCH   7   8
ENDBRANCH   1   7
BRANCH   3  18
ATOM     18  C11 UNL     1      -0.231   2.144   1.204  1.00  0.00     0.117 C   
BRANCH  18  19
ATOM     19  N2  UNL     1       1.248   2.259   1.476  1.00  0.00     0.249 N   
ATOM     20  H11 UNL     1       1.682   2.690   0.647  1.00  0.00     0.199 HD  
ATOM     21  H12 UNL     1       1.426   2.890   2.263  1.00  0.00     0.199 HD  
BRANCH  19  22
ATOM     22  C12 UNL     1       1.969   0.977   1.724  1.00  0.00     0.164 C   
BRANCH  22  23
ATOM     23  C13 UNL     1       3.360   1.264   2.221  1.00  0.00    -0.002 A   
ATOM     24  C14 UNL     1       4.429   1.408   1.305  1.00  0.00     0.012 A   
ATOM     25  C18 UNL     1       3.587   1.476   3.593  1.00  0.00     0.045 A   
ATOM     26  C15 UNL     1       5.712   1.743   1.749  1.00  0.00     0.037 A   
ATOM     27  C17 UNL     1       4.859   1.822   3.994  1.00  0.00     0.109 A   
ATOM     28  C16 UNL     1       5.892   1.950   3.100  1.00  0.00     0.108 A   
ATOM     29  O3  UNL     1       5.236   2.096   5.272  1.00  0.00    -0.316 OA  
ATOM     30  O4  UNL     1       7.058   2.302   3.703  1.00  0.00    -0.316 OA  
ATOM     31  C19 UNL     1       6.650   2.355   5.086  1.00  0.00     0.337 C   
ENDBRANCH  22  23
ENDBRANCH  19  22
ENDBRANCH  18  19
BRANCH  18  32
ATOM     32  C20 UNL     1      -0.814   3.567   1.099  1.00  0.00     0.043 C   
ATOM     33  C21 UNL     1      -2.329   3.601   0.868  1.00  0.00     0.010 C   
ATOM     34  C24 UNL     1      -0.666   4.407   2.378  1.00  0.00     0.010 C   
ATOM     35  C22 UNL     1      -2.690   5.048   1.167  1.00  0.00     0.001 C   
ATOM     36  C23 UNL     1      -1.766   5.464   2.303  1.00  0.00     0.001 C   
ENDBRANCH  18  32
ENDBRANCH   3  18
TORSDOF 9
