REMARK SMILES Cc1nn(C)cc1CCn1cc([C@@H]([NH2+]Cc2ccc3c(c2)OCO3)C(C)(C)C)nn1
REMARK SMILES IDX 10 1 11 2 12 3 29 4 30 5 9 7 8 8 7 9 2 10 3 11 4 12 6 13
REMARK SMILES IDX 1 14 5 15 13 16 14 17 15 20 16 21 17 22 21 23 18 24 20 25
REMARK SMILES IDX 19 26 22 27 24 28 23 29 25 30 26 31 27 32 28 33
REMARK H PARENT 11 6 14 18 14 19
ROOT
ATOM     1   N3  UNL     1      -0.400  -3.047   1.499  1.00  0.00    -0.212 N   
ATOM     2   C8  UNL     1      -1.218  -2.391   0.617  1.00  0.00     0.045 A   
ATOM     3   C9  UNL     1      -1.101  -1.065   0.975  1.00  0.00     0.127 A   
ATOM     4   N5  UNL     1      -0.380  -0.995   2.143  1.00  0.00    -0.132 NA  
ATOM     5   N6  UNL     1       0.038  -2.212   2.455  1.00  0.00    -0.076 NA  
ATOM     6   H12 UNL     1      -1.653  -2.904  -0.227  1.00  0.00     0.083 HD  
ENDROOT
BRANCH   1   7
ATOM     7   C7  UNL     1       0.237  -4.334   1.282  1.00  0.00     0.139 C   
BRANCH   7   8
ATOM     8   C6  UNL     1       1.617  -4.205   0.608  1.00  0.00     0.060 C   
BRANCH   8   9
ATOM     9   C5  UNL     1       1.612  -3.246  -0.546  1.00  0.00    -0.008 A   
ATOM     10  C2  UNL     1       2.109  -1.911  -0.564  1.00  0.00     0.060 A   
ATOM     11  N1  UNL     1       1.647  -1.236  -1.633  1.00  0.00    -0.187 NA  
ATOM     12  N2  UNL     1       1.213  -2.229  -2.448  1.00  0.00    -0.235 N   
ATOM     13  C4  UNL     1       1.071  -3.421  -1.802  1.00  0.00     0.100 A   
ATOM     14  C1  UNL     1       2.942  -1.235   0.466  1.00  0.00     0.069 C   
ATOM     15  C3  UNL     1       0.898  -1.948  -3.829  1.00  0.00     0.159 C   
ENDBRANCH   8   9
ENDBRANCH   7   8
ENDBRANCH   1   7
BRANCH   3  16
ATOM     16  C10 UNL     1      -1.456   0.211   0.265  1.00  0.00     0.120 C   
BRANCH  16  17
ATOM     17  N4  UNL     1      -0.247   0.703  -0.511  1.00  0.00     0.250 N   
ATOM     18  H14 UNL     1       0.293  -0.115  -0.864  1.00  0.00     0.199 HD  
ATOM     19  H15 UNL     1      -0.515   1.222  -1.348  1.00  0.00     0.199 HD  
BRANCH  17  20
ATOM     20  C11 UNL     1       0.721   1.540   0.254  1.00  0.00     0.164 C   
BRANCH  20  21
ATOM     21  C12 UNL     1       0.207   2.931   0.514  1.00  0.00    -0.002 A   
ATOM     22  C13 UNL     1      -0.237   3.300   1.806  1.00  0.00     0.012 A   
ATOM     23  C17 UNL     1       0.136   3.865  -0.534  1.00  0.00     0.045 A   
ATOM     24  C14 UNL     1      -0.754   4.576   2.053  1.00  0.00     0.037 A   
ATOM     25  C16 UNL     1      -0.379   5.115  -0.257  1.00  0.00     0.109 A   
ATOM     26  C15 UNL     1      -0.813   5.460   0.999  1.00  0.00     0.108 A   
ATOM     27  O1  UNL     1      -0.523   6.126  -1.153  1.00  0.00    -0.316 OA  
ATOM     28  O2  UNL     1      -1.284   6.733   1.052  1.00  0.00    -0.316 OA  
ATOM     29  C18 UNL     1      -1.070   7.164  -0.309  1.00  0.00     0.337 C   
ENDBRANCH  20  21
ENDBRANCH  17  20
ENDBRANCH  16  17
BRANCH  16  30
ATOM     30  C19 UNL     1      -2.732   0.209  -0.649  1.00  0.00     0.010 C   
ATOM     31  C20 UNL     1      -3.116   1.671  -0.995  1.00  0.00     0.017 C   
ATOM     32  C21 UNL     1      -3.939  -0.395   0.103  1.00  0.00     0.017 C   
ATOM     33  C22 UNL     1      -2.544  -0.543  -1.982  1.00  0.00     0.017 C   
ENDBRANCH  16  30
ENDBRANCH   3  16
TORSDOF 8
