REMARK SMILES CC(C)[C@H]([NH2+]Cc1ccc2c(c1)OCO2)c1cn(CC(=O)c2ccc(F)cc2)nn1
REMARK SMILES IDX 16 1 17 2 18 3 29 4 30 5 4 7 2 8 1 9 3 10 5 11 6 14 7 15
REMARK SMILES IDX 8 16 12 17 9 18 11 19 10 20 13 21 15 22 14 23 19 24 20 25
REMARK SMILES IDX 21 26 22 27 23 28 28 29 24 30 27 31 25 32 26 33
REMARK H PARENT 17 6 5 12 5 13
ROOT
ATOM     1   C13 UNL     1      -1.766   1.127   0.074  1.00  0.00     0.127 A   
ATOM     2   C14 UNL     1      -0.928   1.823   0.915  1.00  0.00     0.046 A   
ATOM     3   N2  UNL     1      -0.413   0.859   1.734  1.00  0.00    -0.204 N   
ATOM     4   N3  UNL     1      -0.935  -0.348   1.452  1.00  0.00    -0.076 NA  
ATOM     5   N4  UNL     1      -1.762  -0.199   0.428  1.00  0.00    -0.132 NA  
ATOM     6   H18 UNL     1      -0.619   2.858   0.974  1.00  0.00     0.083 HD  
ENDROOT
BRANCH   1   7
ATOM     7   C4  UNL     1      -2.551   1.575  -1.116  1.00  0.00     0.117 C   
BRANCH   7   8
ATOM     8   C2  UNL     1      -4.001   1.982  -0.741  1.00  0.00     0.037 C   
ATOM     9   C1  UNL     1      -4.687   2.739  -1.885  1.00  0.00     0.014 C   
ATOM     10  C3  UNL     1      -4.886   0.813  -0.289  1.00  0.00     0.014 C   
ENDBRANCH   7   8
BRANCH   7  11
ATOM     11  N1  UNL     1      -2.559   0.500  -2.178  1.00  0.00     0.249 N   
ATOM     12  H9  UNL     1      -2.504  -0.400  -1.675  1.00  0.00     0.199 HD  
ATOM     13  H10 UNL     1      -3.450   0.491  -2.681  1.00  0.00     0.199 HD  
BRANCH  11  14
ATOM     14  C5  UNL     1      -1.449   0.547  -3.173  1.00  0.00     0.164 C   
BRANCH  14  15
ATOM     15  C6  UNL     1      -0.125   0.089  -2.632  1.00  0.00    -0.002 A   
ATOM     16  C7  UNL     1       0.861   1.027  -2.241  1.00  0.00     0.012 A   
ATOM     17  C11 UNL     1       0.135  -1.285  -2.485  1.00  0.00     0.045 A   
ATOM     18  C8  UNL     1       2.085   0.605  -1.709  1.00  0.00     0.037 A   
ATOM     19  C10 UNL     1       1.355  -1.667  -1.969  1.00  0.00     0.109 A   
ATOM     20  C9  UNL     1       2.303  -0.749  -1.591  1.00  0.00     0.108 A   
ATOM     21  O1  UNL     1       1.767  -2.948  -1.779  1.00  0.00    -0.316 OA  
ATOM     22  O2  UNL     1       3.431  -1.337  -1.113  1.00  0.00    -0.316 OA  
ATOM     23  C12 UNL     1       3.105  -2.733  -1.278  1.00  0.00     0.337 C   
ENDBRANCH  14  15
ENDBRANCH  11  14
ENDBRANCH   7  11
ENDBRANCH   1   7
BRANCH   3  24
ATOM     24  C15 UNL     1       0.593   1.004   2.759  1.00  0.00     0.214 C   
BRANCH  24  25
ATOM     25  C16 UNL     1       1.965   1.020   2.136  1.00  0.00     0.182 C   
ATOM     26  O3  UNL     1       2.354   2.000   1.497  1.00  0.00    -0.292 OA  
BRANCH  25  27
ATOM     27  C17 UNL     1       2.863  -0.161   2.287  1.00  0.00     0.019 A   
ATOM     28  C18 UNL     1       4.242   0.033   2.105  1.00  0.00     0.015 A   
ATOM     29  C22 UNL     1       2.380  -1.444   2.579  1.00  0.00     0.015 A   
ATOM     30  C19 UNL     1       5.128  -1.039   2.230  1.00  0.00     0.040 A   
ATOM     31  C21 UNL     1       3.271  -2.513   2.709  1.00  0.00     0.040 A   
ATOM     32  C20 UNL     1       4.634  -2.301   2.533  1.00  0.00     0.123 A   
ATOM     33  F1  UNL     1       5.480  -3.333   2.644  1.00  0.00    -0.207 F   
ENDBRANCH  25  27
ENDBRANCH  24  25
ENDBRANCH   3  24
TORSDOF 8
