REMARK SMILES CC(C)(C)[C@H]([NH2+]Cc1ccc2c(c1)OCO2)c1cn(CCc2ccncc2)nn1
REMARK SMILES IDX 17 1 18 2 19 3 28 4 29 5 5 7 2 8 1 9 3 10 4 11 6 12 7 15
REMARK SMILES IDX 8 16 9 17 13 18 10 19 12 20 11 21 14 22 16 23 15 24 20 25
REMARK SMILES IDX 21 26 22 27 23 28 27 29 24 30 26 31 25 32
REMARK H PARENT 18 6 6 13 6 14
ROOT
ATOM     1   C14 UNL     1       1.270   1.285  -0.507  1.00  0.00     0.127 A   
ATOM     2   C15 UNL     1       1.322   2.488   0.160  1.00  0.00     0.045 A   
ATOM     3   N2  UNL     1       0.502   3.304  -0.570  1.00  0.00    -0.212 N   
ATOM     4   N4  UNL     1       0.026   2.665  -1.654  1.00  0.00    -0.076 NA  
ATOM     5   N5  UNL     1       0.479   1.423  -1.621  1.00  0.00    -0.132 NA  
ATOM     6   H20 UNL     1       1.783   2.805   1.085  1.00  0.00     0.083 HD  
ENDROOT
BRANCH   1   7
ATOM     7   C5  UNL     1       1.786  -0.070  -0.124  1.00  0.00     0.120 C   
BRANCH   7   8
ATOM     8   C2  UNL     1       3.100  -0.495  -0.862  1.00  0.00     0.010 C   
ATOM     9   C1  UNL     1       3.629  -1.830  -0.287  1.00  0.00     0.017 C   
ATOM     10  C3  UNL     1       2.908  -0.669  -2.382  1.00  0.00     0.017 C   
ATOM     11  C4  UNL     1       4.202   0.564  -0.629  1.00  0.00     0.017 C   
ENDBRANCH   7   8
BRANCH   7  12
ATOM     12  N1  UNL     1       0.689  -1.080  -0.362  1.00  0.00     0.250 N   
ATOM     13  H11 UNL     1       0.328  -0.901  -1.311  1.00  0.00     0.199 HD  
ATOM     14  H12 UNL     1       1.029  -2.044  -0.359  1.00  0.00     0.199 HD  
BRANCH  12  15
ATOM     15  C6  UNL     1      -0.474  -0.983   0.572  1.00  0.00     0.164 C   
BRANCH  15  16
ATOM     16  C7  UNL     1      -1.591  -1.873   0.108  1.00  0.00    -0.002 A   
ATOM     17  C8  UNL     1      -2.440  -1.450  -0.945  1.00  0.00     0.012 A   
ATOM     18  C12 UNL     1      -1.773  -3.144   0.677  1.00  0.00     0.045 A   
ATOM     19  C9  UNL     1      -3.463  -2.277  -1.419  1.00  0.00     0.037 A   
ATOM     20  C11 UNL     1      -2.793  -3.933   0.187  1.00  0.00     0.109 A   
ATOM     21  C10 UNL     1      -3.614  -3.513  -0.831  1.00  0.00     0.108 A   
ATOM     22  O1  UNL     1      -3.106  -5.181   0.625  1.00  0.00    -0.316 OA  
ATOM     23  O2  UNL     1      -4.548  -4.442  -1.161  1.00  0.00    -0.316 OA  
ATOM     24  C13 UNL     1      -4.241  -5.490  -0.215  1.00  0.00     0.337 C   
ENDBRANCH  15  16
ENDBRANCH  12  15
ENDBRANCH   7  12
ENDBRANCH   1   7
BRANCH   3  25
ATOM     25  C16 UNL     1       0.007   4.615  -0.200  1.00  0.00     0.139 C   
BRANCH  25  26
ATOM     26  C17 UNL     1      -1.488   4.624   0.151  1.00  0.00     0.057 C   
BRANCH  26  27
ATOM     27  C18 UNL     1      -1.900   3.531   1.112  1.00  0.00    -0.043 A   
ATOM     28  C19 UNL     1      -2.828   2.562   0.716  1.00  0.00     0.024 A   
ATOM     29  C22 UNL     1      -1.350   3.439   2.394  1.00  0.00     0.024 A   
ATOM     30  C20 UNL     1      -3.116   1.521   1.583  1.00  0.00     0.111 A   
ATOM     31  C21 UNL     1      -1.690   2.351   3.183  1.00  0.00     0.111 A   
ATOM     32  N3  UNL     1      -2.524   1.365   2.785  1.00  0.00    -0.265 NA  
ENDBRANCH  26  27
ENDBRANCH  25  26
ENDBRANCH   3  25
TORSDOF 8
