REMARK SMILES Cc1ccc(F)c([C@H](CO)n2cc([C@H](CC(C)C)[NH2+]Cc3ccc4c(c3)OCO4)nn2)c1
REMARK SMILES IDX 11 1 12 2 13 3 30 4 31 5 8 7 7 8 2 9 3 10 32 11 4 12 5 13
REMARK SMILES IDX 1 14 6 15 9 16 10 17 14 19 15 20 16 21 17 22 18 23 19 24
REMARK SMILES IDX 20 27 21 28 22 29 26 30 23 31 25 32 24 33 27 34 29 35 28 36
REMARK H PARENT 12 6 10 18 19 25 19 26
ROOT
ATOM     1   N1  UNL     1       0.101  -2.417  -1.948  1.00  0.00    -0.202 N   
ATOM     2   C9  UNL     1       0.042  -1.201  -1.319  1.00  0.00     0.046 A   
ATOM     3   C10 UNL     1       1.359  -0.868  -1.106  1.00  0.00     0.127 A   
ATOM     4   N3  UNL     1       2.162  -1.875  -1.575  1.00  0.00    -0.132 NA  
ATOM     5   N4  UNL     1       1.383  -2.825  -2.065  1.00  0.00    -0.075 NA  
ATOM     6   H10 UNL     1      -0.896  -0.716  -1.085  1.00  0.00     0.083 HD  
ENDROOT
BRANCH   1   7
ATOM     7   C7  UNL     1      -0.990  -3.280  -2.404  1.00  0.00     0.158 C   
BRANCH   7   8
ATOM     8   C6  UNL     1      -2.092  -2.475  -3.074  1.00  0.00     0.013 A   
ATOM     9   C2  UNL     1      -4.315  -1.457  -3.157  1.00  0.00    -0.051 A   
ATOM     10  C3  UNL     1      -4.039  -0.955  -4.434  1.00  0.00     0.006 A   
ATOM     11  C24 UNL     1      -3.335  -2.204  -2.479  1.00  0.00     0.012 A   
ATOM     12  C4  UNL     1      -2.809  -1.208  -5.034  1.00  0.00     0.040 A   
ATOM     13  C5  UNL     1      -1.856  -1.958  -4.355  1.00  0.00     0.128 A   
ATOM     14  C1  UNL     1      -5.633  -1.171  -2.494  1.00  0.00     0.044 C   
ATOM     15  F1  UNL     1      -0.674  -2.181  -4.949  1.00  0.00    -0.207 F   
ENDBRANCH   7   8
BRANCH   7  16
ATOM     16  C8  UNL     1      -1.413  -4.251  -1.282  1.00  0.00     0.186 C   
BRANCH  16  17
ATOM     17  O1  UNL     1      -1.805  -3.580  -0.080  1.00  0.00    -0.394 OA  
ATOM     18  H9  UNL     1      -2.119  -4.269   0.535  1.00  0.00     0.210 HD  
ENDBRANCH  16  17
ENDBRANCH   7  16
ENDBRANCH   1   7
BRANCH   3  19
ATOM     19  C11 UNL     1       1.971   0.315  -0.433  1.00  0.00     0.114 C   
BRANCH  19  20
ATOM     20  C12 UNL     1       2.406   1.367  -1.474  1.00  0.00     0.064 C   
BRANCH  20  21
ATOM     21  C13 UNL     1       3.008   2.676  -0.920  1.00  0.00    -0.012 C   
ATOM     22  C14 UNL     1       3.362   3.609  -2.082  1.00  0.00     0.007 C   
ATOM     23  C15 UNL     1       2.067   3.392   0.049  1.00  0.00     0.007 C   
ENDBRANCH  20  21
ENDBRANCH  19  20
BRANCH  19  24
ATOM     24  N2  UNL     1       3.175  -0.098   0.381  1.00  0.00     0.249 N   
ATOM     25  H21 UNL     1       3.812  -0.575  -0.271  1.00  0.00     0.199 HD  
ATOM     26  H22 UNL     1       3.660   0.726   0.744  1.00  0.00     0.199 HD  
BRANCH  24  27
ATOM     27  C16 UNL     1       2.919  -1.038   1.515  1.00  0.00     0.164 C   
BRANCH  27  28
ATOM     28  C17 UNL     1       2.007  -0.462   2.562  1.00  0.00    -0.002 A   
ATOM     29  C18 UNL     1       0.673  -0.925   2.675  1.00  0.00     0.012 A   
ATOM     30  C22 UNL     1       2.458   0.564   3.411  1.00  0.00     0.045 A   
ATOM     31  C19 UNL     1      -0.203  -0.371   3.614  1.00  0.00     0.037 A   
ATOM     32  C21 UNL     1       1.567   1.089   4.324  1.00  0.00     0.109 A   
ATOM     33  C20 UNL     1       0.274   0.636   4.422  1.00  0.00     0.108 A   
ATOM     34  O2  UNL     1       1.837   2.086   5.207  1.00  0.00    -0.316 OA  
ATOM     35  O3  UNL     1      -0.432   1.291   5.380  1.00  0.00    -0.316 OA  
ATOM     36  C23 UNL     1       0.570   2.195   5.895  1.00  0.00     0.337 C   
ENDBRANCH  27  28
ENDBRANCH  24  27
ENDBRANCH  19  24
ENDBRANCH   3  19
TORSDOF 10
