REMARK SMILES Cc1ccc(F)c([C@@H](CO)n2cc([C@H](CC(C)C)[NH2+]Cc3ccc4c(c3)OCO4)nn2)c1
REMARK SMILES IDX 11 1 12 2 13 3 30 4 31 5 8 7 7 8 2 9 3 10 32 11 4 12 5 13
REMARK SMILES IDX 1 14 6 15 9 16 10 17 14 19 15 20 16 21 17 22 18 23 19 24
REMARK SMILES IDX 20 27 21 28 22 29 26 30 23 31 25 32 24 33 27 34 29 35 28 36
REMARK H PARENT 12 6 10 18 19 25 19 26
ROOT
ATOM     1   N1  UNL     1       0.502  -2.232  -0.206  1.00  0.00    -0.202 N   
ATOM     2   C9  UNL     1       0.108  -1.172   0.566  1.00  0.00     0.046 A   
ATOM     3   C10 UNL     1      -1.265  -1.229   0.540  1.00  0.00     0.127 A   
ATOM     4   N3  UNL     1      -1.659  -2.313  -0.198  1.00  0.00    -0.132 NA  
ATOM     5   N4  UNL     1      -0.573  -2.921  -0.646  1.00  0.00    -0.075 NA  
ATOM     6   H10 UNL     1       0.818  -0.485   1.008  1.00  0.00     0.083 HD  
ENDROOT
BRANCH   1   7
ATOM     7   C7  UNL     1       1.850  -2.590  -0.648  1.00  0.00     0.158 C   
BRANCH   7   8
ATOM     8   C6  UNL     1       2.497  -1.406  -1.353  1.00  0.00     0.013 A   
ATOM     9   C2  UNL     1       3.942   0.567  -1.427  1.00  0.00    -0.051 A   
ATOM     10  C3  UNL     1       3.559   0.799  -2.754  1.00  0.00     0.006 A   
ATOM     11  C24 UNL     1       3.420  -0.542  -0.740  1.00  0.00     0.012 A   
ATOM     12  C4  UNL     1       2.643  -0.046  -3.377  1.00  0.00     0.040 A   
ATOM     13  C5  UNL     1       2.120  -1.127  -2.676  1.00  0.00     0.128 A   
ATOM     14  C1  UNL     1       4.946   1.466  -0.761  1.00  0.00     0.044 C   
ATOM     15  F1  UNL     1       1.218  -1.908  -3.288  1.00  0.00    -0.207 F   
ENDBRANCH   7   8
BRANCH   7  16
ATOM     16  C8  UNL     1       2.650  -3.266   0.484  1.00  0.00     0.186 C   
BRANCH  16  17
ATOM     17  O1  UNL     1       2.763  -2.456   1.655  1.00  0.00    -0.394 OA  
ATOM     18  H9  UNL     1       3.287  -2.964   2.302  1.00  0.00     0.210 HD  
ENDBRANCH  16  17
ENDBRANCH   7  16
ENDBRANCH   1   7
BRANCH   3  19
ATOM     19  C11 UNL     1      -2.281  -0.282   1.073  1.00  0.00     0.114 C   
BRANCH  19  20
ATOM     20  C12 UNL     1      -3.075  -0.863   2.260  1.00  0.00     0.064 C   
BRANCH  20  21
ATOM     21  C13 UNL     1      -2.230  -1.226   3.501  1.00  0.00    -0.012 C   
ATOM     22  C14 UNL     1      -3.132  -1.847   4.571  1.00  0.00     0.007 C   
ATOM     23  C15 UNL     1      -1.495  -0.018   4.083  1.00  0.00     0.007 C   
ENDBRANCH  20  21
ENDBRANCH  19  20
BRANCH  19  24
ATOM     24  N2  UNL     1      -3.293   0.063  -0.004  1.00  0.00     0.249 N   
ATOM     25  H21 UNL     1      -3.727  -0.825  -0.287  1.00  0.00     0.199 HD  
ATOM     26  H22 UNL     1      -4.029   0.654   0.391  1.00  0.00     0.199 HD  
BRANCH  24  27
ATOM     27  C16 UNL     1      -2.759   0.700  -1.248  1.00  0.00     0.164 C   
BRANCH  27  28
ATOM     28  C17 UNL     1      -2.009   1.980  -1.003  1.00  0.00    -0.002 A   
ATOM     29  C18 UNL     1      -2.687   3.142  -0.563  1.00  0.00     0.012 A   
ATOM     30  C22 UNL     1      -0.616   2.022  -1.190  1.00  0.00     0.045 A   
ATOM     31  C19 UNL     1      -1.987   4.326  -0.300  1.00  0.00     0.037 A   
ATOM     32  C21 UNL     1       0.043   3.204  -0.924  1.00  0.00     0.109 A   
ATOM     33  C20 UNL     1      -0.623   4.323  -0.489  1.00  0.00     0.108 A   
ATOM     34  O2  UNL     1       1.381   3.409  -1.044  1.00  0.00    -0.316 OA  
ATOM     35  O3  UNL     1       0.211   5.375  -0.280  1.00  0.00    -0.316 OA  
ATOM     36  C23 UNL     1       1.477   4.802  -0.671  1.00  0.00     0.337 C   
ENDBRANCH  27  28
ENDBRANCH  24  27
ENDBRANCH  19  24
ENDBRANCH   3  19
TORSDOF 10
