REMARK SMILES COc1cccc(CCn2cc([C@H](CC(C)C)[NH2+]Cc3ccc4c(c3)OCO4)nn2)c1O
REMARK SMILES IDX 10 1 11 2 12 3 29 4 30 5 9 7 8 8 7 9 3 10 4 11 31 12 5 13
REMARK SMILES IDX 6 14 2 15 1 16 32 17 13 19 14 20 15 21 16 22 17 23 18 24
REMARK SMILES IDX 19 27 20 28 21 29 25 30 22 31 24 32 23 33 26 34 28 35 27 36
REMARK H PARENT 11 6 32 18 18 25 18 26
ROOT
ATOM     1   N1  UNL     1      -0.842   3.251   0.712  1.00  0.00    -0.212 N   
ATOM     2   C9  UNL     1       0.373   2.655   0.901  1.00  0.00     0.045 A   
ATOM     3   C10 UNL     1       0.634   2.057  -0.311  1.00  0.00     0.127 A   
ATOM     4   N3  UNL     1      -0.359   2.378  -1.199  1.00  0.00    -0.132 NA  
ATOM     5   N4  UNL     1      -1.254   3.114  -0.562  1.00  0.00    -0.076 NA  
ATOM     6   H11 UNL     1       0.862   2.630   1.865  1.00  0.00     0.083 HD  
ENDROOT
BRANCH   1   7
ATOM     7   C8  UNL     1      -1.702   3.864   1.701  1.00  0.00     0.139 C   
BRANCH   7   8
ATOM     8   C7  UNL     1      -2.118   2.913   2.827  1.00  0.00     0.060 C   
BRANCH   8   9
ATOM     9   C6  UNL     1      -2.821   1.662   2.348  1.00  0.00    -0.014 A   
ATOM     10  C2  UNL     1      -2.868  -0.757   1.936  1.00  0.00     0.105 A   
ATOM     11  C3  UNL     1      -4.170  -0.653   1.453  1.00  0.00     0.036 A   
ATOM     12  C24 UNL     1      -2.208   0.404   2.374  1.00  0.00     0.105 A   
ATOM     13  C4  UNL     1      -4.798   0.596   1.416  1.00  0.00     0.003 A   
ATOM     14  C5  UNL     1      -4.132   1.742   1.859  1.00  0.00     0.006 A   
BRANCH  10  15
ATOM     15  O1  UNL     1      -2.122  -1.909   2.004  1.00  0.00    -0.347 OA  
ATOM     16  C1  UNL     1      -2.828  -3.128   1.771  1.00  0.00     0.203 C   
ENDBRANCH  10  15
BRANCH  12  17
ATOM     17  O4  UNL     1      -0.919   0.284   2.837  1.00  0.00    -0.358 OA  
ATOM     18  H31 UNL     1      -0.839  -0.660   3.082  1.00  0.00     0.218 HD  
ENDBRANCH  12  17
ENDBRANCH   8   9
ENDBRANCH   7   8
ENDBRANCH   1   7
BRANCH   3  19
ATOM     19  C11 UNL     1       1.668   1.060  -0.701  1.00  0.00     0.114 C   
BRANCH  19  20
ATOM     20  C12 UNL     1       2.696   1.617  -1.700  1.00  0.00     0.064 C   
BRANCH  20  21
ATOM     21  C13 UNL     1       3.543   2.796  -1.175  1.00  0.00    -0.012 C   
ATOM     22  C14 UNL     1       4.377   2.416   0.049  1.00  0.00     0.007 C   
ATOM     23  C15 UNL     1       4.461   3.305  -2.289  1.00  0.00     0.007 C   
ENDBRANCH  20  21
ENDBRANCH  19  20
BRANCH  19  24
ATOM     24  N2  UNL     1       0.989  -0.118  -1.366  1.00  0.00     0.249 N   
ATOM     25  H22 UNL     1       0.405   0.267  -2.123  1.00  0.00     0.199 HD  
ATOM     26  H23 UNL     1       1.670  -0.744  -1.804  1.00  0.00     0.199 HD  
BRANCH  24  27
ATOM     27  C16 UNL     1       0.085  -0.902  -0.476  1.00  0.00     0.164 C   
BRANCH  27  28
ATOM     28  C17 UNL     1      -0.563  -2.026  -1.232  1.00  0.00    -0.002 A   
ATOM     29  C18 UNL     1      -1.784  -1.808  -1.915  1.00  0.00     0.012 A   
ATOM     30  C22 UNL     1       0.053  -3.287  -1.298  1.00  0.00     0.045 A   
ATOM     31  C19 UNL     1      -2.393  -2.835  -2.644  1.00  0.00     0.037 A   
ATOM     32  C21 UNL     1      -0.575  -4.277  -2.024  1.00  0.00     0.109 A   
ATOM     33  C20 UNL     1      -1.763  -4.059  -2.677  1.00  0.00     0.108 A   
ATOM     34  O2  UNL     1      -0.119  -5.548  -2.184  1.00  0.00    -0.316 OA  
ATOM     35  O3  UNL     1      -2.207  -5.166  -3.326  1.00  0.00    -0.316 OA  
ATOM     36  C23 UNL     1      -1.164  -6.112  -3.009  1.00  0.00     0.337 C   
ENDBRANCH  27  28
ENDBRANCH  24  27
ENDBRANCH  19  24
ENDBRANCH   3  19
TORSDOF 11
