REMARK SMILES c1nc2ccc(-n3cc([C@@H]([NH2+]Cc4ccc5c(c4)OCO5)C4CCCC4)nn3)cc2[nH]1
REMARK SMILES IDX 10 1 9 2 7 3 8 4 28 5 27 6 6 7 1 8 2 9 31 10 3 11 30 12 4 13
REMARK SMILES IDX 29 14 5 15 11 17 12 20 13 21 14 22 18 23 15 24 17 25 16 26
REMARK SMILES IDX 19 27 21 28 20 29 22 30 23 31 26 32 24 33 25 34
REMARK H PARENT 31 16 11 18 11 19
ROOT
ATOM     1   C8  UNL     1      -2.340   0.964  -1.419  1.00  0.00     0.117 C   
ENDROOT
BRANCH   1   2
ATOM     2   C7  UNL     1      -1.570   0.052  -0.520  1.00  0.00     0.127 A   
ATOM     3   N2  UNL     1      -0.454  -0.904   1.099  1.00  0.00    -0.181 N   
ATOM     4   C6  UNL     1      -1.446   0.025   0.851  1.00  0.00     0.135 A   
ATOM     5   N5  UNL     1      -0.078  -1.468  -0.080  1.00  0.00    -0.071 NA  
ATOM     6   N4  UNL     1      -0.741  -0.886  -1.066  1.00  0.00    -0.131 NA  
BRANCH   3   7
ATOM     7   C5  UNL     1       0.171  -1.236   2.329  1.00  0.00     0.060 A   
ATOM     8   C1  UNL     1       3.059  -3.144   5.262  1.00  0.00     0.186 A   
ATOM     9   N1  UNL     1       2.221  -2.282   5.791  1.00  0.00    -0.240 NA  
ATOM     10  N6  UNL     1       2.864  -3.276   3.916  1.00  0.00    -0.304 N   
ATOM     11  C2  UNL     1       1.451  -1.841   4.747  1.00  0.00     0.086 A   
ATOM     12  C23 UNL     1       1.833  -2.444   3.555  1.00  0.00     0.059 A   
ATOM     13  C3  UNL     1       0.398  -0.918   4.740  1.00  0.00     0.032 A   
ATOM     14  C22 UNL     1       1.222  -2.176   2.326  1.00  0.00     0.052 A   
ATOM     15  C4  UNL     1      -0.236  -0.619   3.524  1.00  0.00     0.028 A   
ATOM     16  H25 UNL     1       3.387  -3.882   3.300  1.00  0.00     0.154 HD  
ENDBRANCH   3   7
ENDBRANCH   1   2
BRANCH   1  17
ATOM     17  N3  UNL     1      -1.433   1.446  -2.538  1.00  0.00     0.249 N   
ATOM     18  H6  UNL     1      -0.806   0.656  -2.757  1.00  0.00     0.199 HD  
ATOM     19  H7  UNL     1      -1.970   1.623  -3.390  1.00  0.00     0.199 HD  
BRANCH  17  20
ATOM     20  C9  UNL     1      -0.595   2.650  -2.249  1.00  0.00     0.164 C   
BRANCH  20  21
ATOM     21  C10 UNL     1       0.471   2.418  -1.214  1.00  0.00    -0.002 A   
ATOM     22  C11 UNL     1       1.615   1.645  -1.530  1.00  0.00     0.012 A   
ATOM     23  C15 UNL     1       0.312   2.912   0.093  1.00  0.00     0.045 A   
ATOM     24  C12 UNL     1       2.574   1.346  -0.556  1.00  0.00     0.037 A   
ATOM     25  C14 UNL     1       1.270   2.586   1.032  1.00  0.00     0.109 A   
ATOM     26  C13 UNL     1       2.367   1.824   0.718  1.00  0.00     0.108 A   
ATOM     27  O1  UNL     1       1.240   2.934   2.346  1.00  0.00    -0.316 OA  
ATOM     28  O2  UNL     1       3.174   1.608   1.789  1.00  0.00    -0.316 OA  
ATOM     29  C16 UNL     1       2.472   2.337   2.817  1.00  0.00     0.337 C   
ENDBRANCH  20  21
ENDBRANCH  17  20
ENDBRANCH   1  17
BRANCH   1  30
ATOM     30  C17 UNL     1      -3.563   0.261  -2.040  1.00  0.00     0.043 C   
ATOM     31  C18 UNL     1      -4.582  -0.212  -0.997  1.00  0.00     0.010 C   
ATOM     32  C21 UNL     1      -4.418   1.160  -2.945  1.00  0.00     0.010 C   
ATOM     33  C19 UNL     1      -5.822  -0.500  -1.827  1.00  0.00     0.001 C   
ATOM     34  C20 UNL     1      -5.831   0.576  -2.907  1.00  0.00     0.001 C   
ENDBRANCH   1  30
TORSDOF 6
