REMARK SMILES Fc1cc(F)c(Cn2cc([C@@H]([NH2+]Cc3ccc4c(c3)OCO4)C3CCCC3)nn2)c(F)c1
REMARK SMILES IDX 8 1 9 2 10 3 28 4 29 5 7 7 6 8 2 9 3 10 32 11 4 12 30 13
REMARK SMILES IDX 1 14 5 15 31 16 11 17 12 18 13 21 14 22 15 23 19 24 16 25
REMARK SMILES IDX 18 26 17 27 20 28 22 29 21 30 23 31 24 32 27 33 25 34 26 35
REMARK H PARENT 9 6 12 19 12 20
ROOT
ATOM     1   N1  UNL     1       0.535   1.095  -1.905  1.00  0.00    -0.208 N   
ATOM     2   C6  UNL     1      -0.543   0.601  -1.222  1.00  0.00     0.046 A   
ATOM     3   C7  UNL     1      -0.835   1.587  -0.307  1.00  0.00     0.127 A   
ATOM     4   N3  UNL     1       0.041   2.631  -0.472  1.00  0.00    -0.132 NA  
ATOM     5   N4  UNL     1       0.873   2.317  -1.452  1.00  0.00    -0.076 NA  
ATOM     6   H4  UNL     1      -0.965  -0.372  -1.432  1.00  0.00     0.083 HD  
ENDROOT
BRANCH   1   7
ATOM     7   C5  UNL     1       1.261   0.485  -3.006  1.00  0.00     0.175 C   
BRANCH   7   8
ATOM     8   C4  UNL     1       2.315  -0.456  -2.507  1.00  0.00     0.043 A   
ATOM     9   C1  UNL     1       4.273  -2.206  -1.558  1.00  0.00     0.129 A   
ATOM     10  C2  UNL     1       4.605  -0.882  -1.812  1.00  0.00     0.079 A   
ATOM     11  C23 UNL     1       2.982  -2.672  -1.763  1.00  0.00     0.079 A   
ATOM     12  C3  UNL     1       3.622  -0.019  -2.282  1.00  0.00     0.133 A   
ATOM     13  C22 UNL     1       2.014  -1.790  -2.230  1.00  0.00     0.133 A   
ATOM     14  F1  UNL     1       5.209  -3.045  -1.099  1.00  0.00    -0.207 F   
ATOM     15  F2  UNL     1       3.944   1.258  -2.525  1.00  0.00    -0.206 F   
ATOM     16  F3  UNL     1       0.761  -2.233  -2.407  1.00  0.00    -0.206 F   
ENDBRANCH   7   8
ENDBRANCH   1   7
BRANCH   3  17
ATOM     17  C8  UNL     1      -1.853   1.667   0.785  1.00  0.00     0.117 C   
BRANCH  17  18
ATOM     18  N2  UNL     1      -1.292   2.489   1.925  1.00  0.00     0.249 N   
ATOM     19  H6  UNL     1      -0.547   3.069   1.506  1.00  0.00     0.199 HD  
ATOM     20  H7  UNL     1      -1.983   3.154   2.281  1.00  0.00     0.199 HD  
BRANCH  18  21
ATOM     21  C9  UNL     1      -0.707   1.734   3.069  1.00  0.00     0.164 C   
BRANCH  21  22
ATOM     22  C10 UNL     1       0.408   0.795   2.698  1.00  0.00    -0.002 A   
ATOM     23  C11 UNL     1       1.639   1.294   2.206  1.00  0.00     0.012 A   
ATOM     24  C15 UNL     1       0.231  -0.593   2.829  1.00  0.00     0.045 A   
ATOM     25  C12 UNL     1       2.673   0.426   1.839  1.00  0.00     0.037 A   
ATOM     26  C14 UNL     1       1.274  -1.420   2.468  1.00  0.00     0.109 A   
ATOM     27  C13 UNL     1       2.461  -0.925   1.986  1.00  0.00     0.108 A   
ATOM     28  O1  UNL     1       1.268  -2.777   2.535  1.00  0.00    -0.316 OA  
ATOM     29  O2  UNL     1       3.351  -1.907   1.696  1.00  0.00    -0.316 OA  
ATOM     30  C16 UNL     1       2.614  -3.079   2.103  1.00  0.00     0.337 C   
ENDBRANCH  21  22
ENDBRANCH  18  21
ENDBRANCH  17  18
BRANCH  17  31
ATOM     31  C17 UNL     1      -3.181   2.260   0.276  1.00  0.00     0.043 C   
ATOM     32  C18 UNL     1      -4.328   2.214   1.289  1.00  0.00     0.010 C   
ATOM     33  C21 UNL     1      -3.160   3.736  -0.128  1.00  0.00     0.010 C   
ATOM     34  C19 UNL     1      -5.371   3.184   0.735  1.00  0.00     0.001 C   
ATOM     35  C20 UNL     1      -4.636   4.092  -0.251  1.00  0.00     0.001 C   
ENDBRANCH  17  31
ENDBRANCH   3  17
TORSDOF 7
