REMARK SMILES CC(C)(C)[C@H]([NH2+]Cc1ccc2c(c1)OCO2)c1cn(-c2ccccc2CN)nn1
REMARK SMILES IDX 17 1 18 2 19 3 28 4 29 5 5 6 2 7 1 8 3 9 4 10 6 11 7 14 8 15
REMARK SMILES IDX 9 16 13 17 10 18 12 19 11 20 14 21 16 22 15 23 20 24 21 25
REMARK SMILES IDX 25 26 22 27 24 28 23 29 26 30 27 31
REMARK H PARENT 6 12 6 13 27 32 27 33
ROOT
ATOM     1   C14 UNL     1       1.098   0.020  -0.548  1.00  0.00     0.128 A   
ATOM     2   C15 UNL     1       0.225   0.704  -1.363  1.00  0.00     0.135 A   
ATOM     3   N2  UNL     1       0.157  -0.018  -2.538  1.00  0.00    -0.180 N   
ATOM     4   N4  UNL     1       0.955  -1.119  -2.386  1.00  0.00    -0.071 NA  
ATOM     5   N5  UNL     1       1.536  -1.091  -1.200  1.00  0.00    -0.131 NA  
ENDROOT
BRANCH   1   6
ATOM     6   C5  UNL     1       1.506   0.256   0.874  1.00  0.00     0.120 C   
BRANCH   6   7
ATOM     7   C2  UNL     1       2.837   1.072   1.036  1.00  0.00     0.010 C   
ATOM     8   C1  UNL     1       4.070   0.318   0.501  1.00  0.00     0.017 C   
ATOM     9   C3  UNL     1       3.080   1.407   2.527  1.00  0.00     0.017 C   
ATOM     10  C4  UNL     1       2.729   2.421   0.287  1.00  0.00     0.017 C   
ENDBRANCH   6   7
BRANCH   6  11
ATOM     11  N1  UNL     1       1.623  -1.085   1.573  1.00  0.00     0.250 N   
ATOM     12  H11 UNL     1       2.147  -1.009   2.447  1.00  0.00     0.199 HD  
ATOM     13  H12 UNL     1       2.171  -1.688   0.942  1.00  0.00     0.199 HD  
BRANCH  11  14
ATOM     14  C6  UNL     1       0.338  -1.798   1.848  1.00  0.00     0.164 C   
BRANCH  14  15
ATOM     15  C7  UNL     1      -0.480  -1.124   2.915  1.00  0.00    -0.002 A   
ATOM     16  C8  UNL     1      -1.650  -0.405   2.572  1.00  0.00     0.012 A   
ATOM     17  C12 UNL     1      -0.071  -1.179   4.260  1.00  0.00     0.045 A   
ATOM     18  C9  UNL     1      -2.400   0.258   3.550  1.00  0.00     0.037 A   
ATOM     19  C11 UNL     1      -0.835  -0.517   5.199  1.00  0.00     0.109 A   
ATOM     20  C10 UNL     1      -1.964   0.184   4.854  1.00  0.00     0.108 A   
ATOM     21  O1  UNL     1      -0.581  -0.471   6.533  1.00  0.00    -0.316 OA  
ATOM     22  O2  UNL     1      -2.562   0.763   5.928  1.00  0.00    -0.316 OA  
ATOM     23  C13 UNL     1      -1.711   0.302   6.999  1.00  0.00     0.337 C   
ENDBRANCH  14  15
ENDBRANCH  11  14
ENDBRANCH   6  11
ENDBRANCH   1   6
BRANCH   3  24
ATOM     24  C16 UNL     1      -0.589   0.177  -3.742  1.00  0.00     0.062 A   
ATOM     25  C17 UNL     1      -0.569  -0.894  -4.669  1.00  0.00     0.026 A   
ATOM     26  C21 UNL     1      -1.336   1.335  -4.063  1.00  0.00    -0.011 A   
ATOM     27  C18 UNL     1      -1.290  -0.849  -5.862  1.00  0.00     0.002 A   
ATOM     28  C20 UNL     1      -2.072   1.342  -5.274  1.00  0.00     0.007 A   
ATOM     29  C19 UNL     1      -2.051   0.267  -6.161  1.00  0.00     0.000 A   
BRANCH  26  30
ATOM     30  C22 UNL     1      -1.429   2.603  -3.251  1.00  0.00     0.115 C   
BRANCH  30  31
ATOM     31  N3  UNL     1      -2.394   2.469  -2.164  1.00  0.00    -0.326 NA  
ATOM     32  H27 UNL     1      -2.577   3.398  -1.780  1.00  0.00     0.119 HD  
ATOM     33  H28 UNL     1      -3.290   2.177  -2.564  1.00  0.00     0.119 HD  
ENDBRANCH  30  31
ENDBRANCH  26  30
ENDBRANCH   3  24
TORSDOF 8
