REMARK SMILES Oc1ccc(O)c(Cn2cc([C@@H]([NH2+]Cc3ccc4c(c3)OCO4)C3CCCC3)nn2)c1
REMARK SMILES IDX 9 1 10 2 11 3 29 4 30 5 8 7 7 8 2 9 3 10 31 11 4 12 5 13
REMARK SMILES IDX 1 14 6 16 12 18 13 19 14 22 15 23 16 24 20 25 17 26 19 27
REMARK SMILES IDX 18 28 21 29 23 30 22 31 24 32 25 33 28 34 26 35 27 36
REMARK H PARENT 10 6 1 15 6 17 13 20 13 21
ROOT
ATOM     1   N1  UNL     1       2.348   0.251   1.084  1.00  0.00    -0.208 N   
ATOM     2   C7  UNL     1       1.404   0.314   0.095  1.00  0.00     0.046 A   
ATOM     3   C8  UNL     1       0.439  -0.582   0.497  1.00  0.00     0.127 A   
ATOM     4   N3  UNL     1       0.838  -1.180   1.665  1.00  0.00    -0.132 NA  
ATOM     5   N4  UNL     1       2.016  -0.681   2.002  1.00  0.00    -0.076 NA  
ATOM     6   H7  UNL     1       1.498   0.986  -0.748  1.00  0.00     0.083 HD  
ENDROOT
BRANCH   1   7
ATOM     7   C6  UNL     1       3.594   0.991   1.192  1.00  0.00     0.172 C   
BRANCH   7   8
ATOM     8   C5  UNL     1       3.346   2.421   1.589  1.00  0.00     0.004 A   
ATOM     9   C1  UNL     1       2.986   4.078   3.322  1.00  0.00     0.072 A   
ATOM     10  C2  UNL     1       2.875   5.084   2.369  1.00  0.00     0.036 A   
ATOM     11  C23 UNL     1       3.215   2.758   2.945  1.00  0.00     0.041 A   
ATOM     12  C3  UNL     1       2.993   4.762   1.016  1.00  0.00     0.036 A   
ATOM     13  C4  UNL     1       3.223   3.439   0.636  1.00  0.00     0.076 A   
BRANCH   9  14
ATOM     14  O1  UNL     1       2.876   4.342   4.654  1.00  0.00    -0.361 OA  
ATOM     15  H1  UNL     1       2.763   5.298   4.784  1.00  0.00     0.218 HD  
ENDBRANCH   9  14
BRANCH  13  16
ATOM     16  O2  UNL     1       3.324   3.114  -0.689  1.00  0.00    -0.361 OA  
ATOM     17  H4  UNL     1       3.417   3.939  -1.201  1.00  0.00     0.218 HD  
ENDBRANCH  13  16
ENDBRANCH   7   8
ENDBRANCH   1   7
BRANCH   3  18
ATOM     18  C9  UNL     1      -0.862  -0.974  -0.124  1.00  0.00     0.117 C   
BRANCH  18  19
ATOM     19  N2  UNL     1      -1.258  -2.355   0.340  1.00  0.00     0.249 N   
ATOM     20  H9  UNL     1      -1.052  -2.381   1.350  1.00  0.00     0.199 HD  
ATOM     21  H10 UNL     1      -2.264  -2.511   0.236  1.00  0.00     0.199 HD  
BRANCH  19  22
ATOM     22  C10 UNL     1      -0.516  -3.491  -0.283  1.00  0.00     0.164 C   
BRANCH  22  23
ATOM     23  C11 UNL     1      -0.896  -3.708  -1.722  1.00  0.00    -0.002 A   
ATOM     24  C12 UNL     1       0.000  -3.353  -2.758  1.00  0.00     0.012 A   
ATOM     25  C16 UNL     1      -2.156  -4.237  -2.049  1.00  0.00     0.045 A   
ATOM     26  C13 UNL     1      -0.355  -3.510  -4.102  1.00  0.00     0.037 A   
ATOM     27  C15 UNL     1      -2.474  -4.380  -3.384  1.00  0.00     0.109 A   
ATOM     28  C14 UNL     1      -1.601  -4.024  -4.382  1.00  0.00     0.108 A   
ATOM     29  O3  UNL     1      -3.646  -4.868  -3.869  1.00  0.00    -0.316 OA  
ATOM     30  O4  UNL     1      -2.115  -4.240  -5.621  1.00  0.00    -0.316 OA  
ATOM     31  C17 UNL     1      -3.397  -4.817  -5.292  1.00  0.00     0.337 C   
ENDBRANCH  22  23
ENDBRANCH  19  22
ENDBRANCH  18  19
BRANCH  18  32
ATOM     32  C18 UNL     1      -1.973   0.045   0.198  1.00  0.00     0.043 C   
ATOM     33  C19 UNL     1      -2.486   0.064   1.640  1.00  0.00     0.010 C   
ATOM     34  C22 UNL     1      -3.254  -0.129  -0.629  1.00  0.00     0.010 C   
ATOM     35  C20 UNL     1      -3.747   0.906   1.532  1.00  0.00     0.001 C   
ATOM     36  C21 UNL     1      -4.376   0.492   0.206  1.00  0.00     0.001 C   
ENDBRANCH  18  32
ENDBRANCH   3  18
TORSDOF 9
