REMARK SMILES CC(C)(C)[C@H]([NH2+]Cc1ccc2c(c1)OCO2)c1cn(COCc2ccccc2)nn1
REMARK SMILES IDX 17 1 18 2 19 3 29 4 30 5 5 7 2 8 1 9 3 10 4 11 6 12 7 15
REMARK SMILES IDX 8 16 9 17 13 18 10 19 12 20 11 21 14 22 16 23 15 24 20 25
REMARK SMILES IDX 21 26 22 27 23 28 24 29 28 30 25 31 27 32 26 33
REMARK H PARENT 18 6 6 13 6 14
ROOT
ATOM     1   C14 UNL     1      -0.069  -1.675  -0.739  1.00  0.00     0.127 A   
ATOM     2   C15 UNL     1       0.993  -2.422  -0.279  1.00  0.00     0.048 A   
ATOM     3   N2  UNL     1       1.556  -2.933  -1.416  1.00  0.00    -0.186 N   
ATOM     4   N3  UNL     1       0.893  -2.515  -2.512  1.00  0.00    -0.074 NA  
ATOM     5   N4  UNL     1      -0.107  -1.746  -2.110  1.00  0.00    -0.132 NA  
ATOM     6   H20 UNL     1       1.403  -2.618   0.702  1.00  0.00     0.083 HD  
ENDROOT
BRANCH   1   7
ATOM     7   C5  UNL     1      -1.046  -0.794  -0.019  1.00  0.00     0.120 C   
BRANCH   7   8
ATOM     8   C2  UNL     1      -2.392  -1.504   0.364  1.00  0.00     0.010 C   
ATOM     9   C1  UNL     1      -2.104  -2.749   1.234  1.00  0.00     0.017 C   
ATOM     10  C3  UNL     1      -3.204  -1.950  -0.868  1.00  0.00     0.017 C   
ATOM     11  C4  UNL     1      -3.276  -0.559   1.212  1.00  0.00     0.017 C   
ENDBRANCH   7   8
BRANCH   7  12
ATOM     12  N1  UNL     1      -1.316   0.417  -0.887  1.00  0.00     0.250 N   
ATOM     13  H11 UNL     1      -1.434   0.052  -1.845  1.00  0.00     0.199 HD  
ATOM     14  H12 UNL     1      -2.189   0.885  -0.634  1.00  0.00     0.199 HD  
BRANCH  12  15
ATOM     15  C6  UNL     1      -0.221   1.430  -0.935  1.00  0.00     0.164 C   
BRANCH  15  16
ATOM     16  C7  UNL     1      -0.232   2.336   0.265  1.00  0.00    -0.002 A   
ATOM     17  C8  UNL     1      -1.147   3.414   0.339  1.00  0.00     0.012 A   
ATOM     18  C12 UNL     1       0.644   2.099   1.338  1.00  0.00     0.045 A   
ATOM     19  C9  UNL     1      -1.185   4.250   1.461  1.00  0.00     0.037 A   
ATOM     20  C11 UNL     1       0.583   2.943   2.427  1.00  0.00     0.109 A   
ATOM     21  C10 UNL     1      -0.305   3.987   2.488  1.00  0.00     0.108 A   
ATOM     22  O1  UNL     1       1.362   2.857   3.537  1.00  0.00    -0.316 OA  
ATOM     23  O2  UNL     1      -0.199   4.690   3.646  1.00  0.00    -0.316 OA  
ATOM     24  C13 UNL     1       0.869   3.978   4.306  1.00  0.00     0.337 C   
ENDBRANCH  15  16
ENDBRANCH  12  15
ENDBRANCH   7  12
ENDBRANCH   1   7
BRANCH   3  25
ATOM     25  C16 UNL     1       2.703  -3.812  -1.530  1.00  0.00     0.294 C   
BRANCH  25  26
ATOM     26  O3  UNL     1       3.858  -3.189  -0.975  1.00  0.00    -0.356 OA  
BRANCH  26  27
ATOM     27  C17 UNL     1       4.479  -2.255  -1.861  1.00  0.00     0.198 C   
BRANCH  27  28
ATOM     28  C18 UNL     1       4.170  -0.836  -1.450  1.00  0.00    -0.022 A   
ATOM     29  C19 UNL     1       3.722   0.099  -2.394  1.00  0.00     0.006 A   
ATOM     30  C23 UNL     1       4.397  -0.413  -0.132  1.00  0.00     0.006 A   
ATOM     31  C20 UNL     1       3.512   1.431  -2.028  1.00  0.00     0.000 A   
ATOM     32  C22 UNL     1       4.186   0.918   0.232  1.00  0.00     0.000 A   
ATOM     33  C21 UNL     1       3.745   1.840  -0.716  1.00  0.00     0.000 A   
ENDBRANCH  27  28
ENDBRANCH  26  27
ENDBRANCH  25  26
ENDBRANCH   3  25
TORSDOF 9
