REMARK SMILES OC[C@H](c1ccc(F)cn1)n1cc([C@@H]([NH2+]Cc2ccc3c(c2)OCO3)C2CCCCC2)nn1
REMARK SMILES IDX 11 1 12 2 13 3 32 4 33 5 3 7 2 8 1 9 4 11 5 12 10 13 6 14
REMARK SMILES IDX 9 15 7 16 8 17 14 18 15 19 16 22 17 23 18 24 22 25 19 26
REMARK SMILES IDX 21 27 20 28 23 29 25 30 24 31 26 32 27 33 31 34 28 35 30 36
REMARK SMILES IDX 29 37
REMARK H PARENT 12 6 1 10 15 20 15 21
ROOT
ATOM     1   N2  UNL     1      -1.817  -0.389  -2.849  1.00  0.00    -0.201 N   
ATOM     2   C8  UNL     1      -1.080  -0.671  -1.731  1.00  0.00     0.046 A   
ATOM     3   C9  UNL     1      -1.379   0.349  -0.858  1.00  0.00     0.127 A   
ATOM     4   N4  UNL     1      -2.220   1.237  -1.480  1.00  0.00    -0.132 NA  
ATOM     5   N5  UNL     1      -2.470   0.784  -2.698  1.00  0.00    -0.075 NA  
ATOM     6   H8  UNL     1      -0.465  -1.559  -1.653  1.00  0.00     0.083 HD  
ENDROOT
BRANCH   1   7
ATOM     7   C2  UNL     1      -1.958  -1.153  -4.082  1.00  0.00     0.174 C   
BRANCH   7   8
ATOM     8   C1  UNL     1      -2.589  -2.538  -3.843  1.00  0.00     0.187 C   
BRANCH   8   9
ATOM     9   O1  UNL     1      -1.792  -3.400  -3.029  1.00  0.00    -0.394 OA  
ATOM     10  H1  UNL     1      -0.924  -3.483  -3.485  1.00  0.00     0.210 HD  
ENDBRANCH   8   9
ENDBRANCH   7   8
BRANCH   7  11
ATOM     11  C3  UNL     1      -0.628  -1.208  -4.816  1.00  0.00     0.065 A   
ATOM     12  C4  UNL     1      -0.293  -0.202  -5.729  1.00  0.00     0.029 A   
ATOM     13  N1  UNL     1       0.220  -2.235  -4.526  1.00  0.00    -0.256 NA  
ATOM     14  C5  UNL     1       0.940  -0.258  -6.378  1.00  0.00     0.043 A   
ATOM     15  C7  UNL     1       1.410  -2.263  -5.181  1.00  0.00     0.150 A   
ATOM     16  C6  UNL     1       1.801  -1.305  -6.099  1.00  0.00     0.141 A   
ATOM     17  F1  UNL     1       2.992  -1.381  -6.703  1.00  0.00    -0.205 F   
ENDBRANCH   7  11
ENDBRANCH   1   7
BRANCH   3  18
ATOM     18  C10 UNL     1      -0.915   0.613   0.537  1.00  0.00     0.117 C   
BRANCH  18  19
ATOM     19  N3  UNL     1      -0.868   2.105   0.802  1.00  0.00     0.249 N   
ATOM     20  H10 UNL     1      -0.798   2.283   1.808  1.00  0.00     0.199 HD  
ATOM     21  H11 UNL     1      -1.773   2.482   0.485  1.00  0.00     0.199 HD  
BRANCH  19  22
ATOM     22  C11 UNL     1       0.193   2.874   0.088  1.00  0.00     0.164 C   
BRANCH  22  23
ATOM     23  C12 UNL     1       1.584   2.529   0.543  1.00  0.00    -0.002 A   
ATOM     24  C13 UNL     1       2.469   1.848  -0.328  1.00  0.00     0.012 A   
ATOM     25  C17 UNL     1       2.014   2.870   1.838  1.00  0.00     0.045 A   
ATOM     26  C14 UNL     1       3.762   1.505   0.084  1.00  0.00     0.037 A   
ATOM     27  C16 UNL     1       3.293   2.514   2.213  1.00  0.00     0.109 A   
ATOM     28  C15 UNL     1       4.143   1.851   1.362  1.00  0.00     0.108 A   
ATOM     29  O2  UNL     1       3.858   2.761   3.423  1.00  0.00    -0.316 OA  
ATOM     30  O3  UNL     1       5.350   1.601   1.928  1.00  0.00    -0.316 OA  
ATOM     31  C18 UNL     1       5.173   2.192   3.234  1.00  0.00     0.337 C   
ENDBRANCH  22  23
ENDBRANCH  19  22
ENDBRANCH  18  19
BRANCH  18  32
ATOM     32  C19 UNL     1      -1.799  -0.042   1.636  1.00  0.00     0.043 C   
ATOM     33  C20 UNL     1      -1.722  -1.582   1.592  1.00  0.00     0.010 C   
ATOM     34  C24 UNL     1      -3.272   0.413   1.620  1.00  0.00     0.010 C   
ATOM     35  C21 UNL     1      -2.517  -2.217   2.731  1.00  0.00     0.001 C   
ATOM     36  C23 UNL     1      -4.071  -0.231   2.753  1.00  0.00     0.001 C   
ATOM     37  C22 UNL     1      -3.970  -1.752   2.728  1.00  0.00     0.000 C   
ENDBRANCH  18  32
ENDBRANCH   3  18
TORSDOF 9
