REMARK SMILES OC[C@@H](c1ccc(F)cn1)n1cc([C@@H]([NH2+]Cc2ccc3c(c2)OCO3)C2CCCCC2)nn1
REMARK SMILES IDX 11 1 12 2 13 3 32 4 33 5 3 7 2 8 1 9 4 11 5 12 10 13 6 14
REMARK SMILES IDX 9 15 7 16 8 17 14 18 15 19 16 22 17 23 18 24 22 25 19 26
REMARK SMILES IDX 21 27 20 28 23 29 25 30 24 31 26 32 27 33 31 34 28 35 30 36
REMARK SMILES IDX 29 37
REMARK H PARENT 12 6 1 10 15 20 15 21
ROOT
ATOM     1   N2  UNL     1      -0.397  -2.720  -0.230  1.00  0.00    -0.201 N   
ATOM     2   C8  UNL     1      -0.450  -1.382  -0.518  1.00  0.00     0.046 A   
ATOM     3   C9  UNL     1       0.386  -0.803   0.408  1.00  0.00     0.127 A   
ATOM     4   N4  UNL     1       0.906  -1.780   1.217  1.00  0.00    -0.132 NA  
ATOM     5   N5  UNL     1       0.423  -2.945   0.820  1.00  0.00    -0.075 NA  
ATOM     6   H8  UNL     1      -1.072  -0.987  -1.310  1.00  0.00     0.083 HD  
ENDROOT
BRANCH   1   7
ATOM     7   C2  UNL     1      -1.060  -3.837  -0.890  1.00  0.00     0.174 C   
BRANCH   7   8
ATOM     8   C1  UNL     1      -2.594  -3.762  -0.777  1.00  0.00     0.187 C   
BRANCH   8   9
ATOM     9   O1  UNL     1      -3.168  -2.627  -1.432  1.00  0.00    -0.394 OA  
ATOM     10  H1  UNL     1      -2.867  -2.676  -2.365  1.00  0.00     0.210 HD  
ENDBRANCH   8   9
ENDBRANCH   7   8
BRANCH   7  11
ATOM     11  C3  UNL     1      -0.555  -3.964  -2.318  1.00  0.00     0.065 A   
ATOM     12  C4  UNL     1       0.628  -4.664  -2.579  1.00  0.00     0.029 A   
ATOM     13  N1  UNL     1      -1.264  -3.343  -3.304  1.00  0.00    -0.256 NA  
ATOM     14  C5  UNL     1       1.093  -4.746  -3.892  1.00  0.00     0.043 A   
ATOM     15  C7  UNL     1      -0.786  -3.448  -4.572  1.00  0.00     0.150 A   
ATOM     16  C6  UNL     1       0.371  -4.130  -4.900  1.00  0.00     0.141 A   
ATOM     17  F1  UNL     1       0.793  -4.189  -6.169  1.00  0.00    -0.205 F   
ENDBRANCH   7  11
ENDBRANCH   1   7
BRANCH   3  18
ATOM     18  C10 UNL     1       0.691   0.631   0.703  1.00  0.00     0.117 C   
BRANCH  18  19
ATOM     19  N3  UNL     1       0.678   0.790   2.217  1.00  0.00     0.249 N   
ATOM     20  H10 UNL     1       0.688  -0.169   2.600  1.00  0.00     0.199 HD  
ATOM     21  H11 UNL     1       1.553   1.200   2.554  1.00  0.00     0.199 HD  
BRANCH  19  22
ATOM     22  C11 UNL     1      -0.483   1.516   2.799  1.00  0.00     0.164 C   
BRANCH  22  23
ATOM     23  C12 UNL     1      -1.826   0.942   2.436  1.00  0.00    -0.002 A   
ATOM     24  C13 UNL     1      -2.781   1.752   1.773  1.00  0.00     0.012 A   
ATOM     25  C17 UNL     1      -2.152  -0.392   2.744  1.00  0.00     0.045 A   
ATOM     26  C14 UNL     1      -4.030   1.241   1.406  1.00  0.00     0.037 A   
ATOM     27  C16 UNL     1      -3.388  -0.868   2.355  1.00  0.00     0.109 A   
ATOM     28  C15 UNL     1      -4.301  -0.074   1.706  1.00  0.00     0.108 A   
ATOM     29  O2  UNL     1      -3.849  -2.131   2.555  1.00  0.00    -0.316 OA  
ATOM     30  O3  UNL     1      -5.457  -0.730   1.429  1.00  0.00    -0.316 OA  
ATOM     31  C18 UNL     1      -5.155  -2.045   1.940  1.00  0.00     0.337 C   
ENDBRANCH  22  23
ENDBRANCH  19  22
ENDBRANCH  18  19
BRANCH  18  32
ATOM     32  C19 UNL     1       2.063   1.103   0.149  1.00  0.00     0.043 C   
ATOM     33  C20 UNL     1       2.287   2.609   0.415  1.00  0.00     0.010 C   
ATOM     34  C24 UNL     1       2.187   0.829  -1.367  1.00  0.00     0.010 C   
ATOM     35  C21 UNL     1       3.604   3.113  -0.171  1.00  0.00     0.001 C   
ATOM     36  C23 UNL     1       3.503   1.342  -1.947  1.00  0.00     0.001 C   
ATOM     37  C22 UNL     1       3.706   2.823  -1.661  1.00  0.00     0.000 C   
ENDBRANCH  18  32
ENDBRANCH   3  18
TORSDOF 9
