REMARK SMILES [O-]N([O-])c1cccc(Cn2cc([C@@H]([NH2+]Cc3ccc4c(c3)OCO4)C3CCCC3)nn2)c1
REMARK SMILES IDX 10 1 11 2 12 3 30 4 31 5 9 7 8 8 4 9 5 10 32 11 6 12 7 13
REMARK SMILES IDX 2 14 1 15 3 16 13 17 14 18 15 21 16 22 17 23 21 24 18 25
REMARK SMILES IDX 20 26 19 27 22 28 24 29 23 30 25 31 26 32 29 33 27 34 28 35
REMARK H PARENT 11 6 14 19 14 20
ROOT
ATOM     1   N2  UNL     1      -2.847  -0.889  -0.114  1.00  0.00    -0.208 N   
ATOM     2   C7  UNL     1      -1.729  -0.890   0.676  1.00  0.00     0.046 A   
ATOM     3   C8  UNL     1      -1.479   0.447   0.897  1.00  0.00     0.127 A   
ATOM     4   N4  UNL     1      -2.442   1.195   0.272  1.00  0.00    -0.132 NA  
ATOM     5   N5  UNL     1      -3.273   0.369  -0.340  1.00  0.00    -0.076 NA  
ATOM     6   H6  UNL     1      -1.219  -1.801   0.958  1.00  0.00     0.083 HD  
ENDROOT
BRANCH   1   7
ATOM     7   C6  UNL     1      -3.484  -2.016  -0.780  1.00  0.00     0.169 C   
BRANCH   7   8
ATOM     8   C5  UNL     1      -2.633  -2.538  -1.919  1.00  0.00    -0.026 A   
ATOM     9   C1  UNL     1      -1.294  -2.164  -3.920  1.00  0.00     0.118 A   
ATOM     10  C2  UNL     1      -1.054  -3.538  -4.036  1.00  0.00     0.031 A   
ATOM     11  C23 UNL     1      -2.096  -1.665  -2.884  1.00  0.00     0.036 A   
ATOM     12  C3  UNL     1      -1.612  -4.410  -3.100  1.00  0.00     0.003 A   
ATOM     13  C4  UNL     1      -2.392  -3.915  -2.048  1.00  0.00     0.005 A   
BRANCH   9  14
ATOM     14  N1  UNL     1      -0.675  -1.226  -4.864  1.00  0.00     0.092 N   
ATOM     15  O1  UNL     1      -0.176  -1.694  -5.896  1.00  0.00    -0.138 OA  
ATOM     16  O2  UNL     1      -0.664  -0.021  -4.548  1.00  0.00    -0.138 OA  
ENDBRANCH   9  14
ENDBRANCH   7   8
ENDBRANCH   1   7
BRANCH   3  17
ATOM     17  C9  UNL     1      -0.358   1.140   1.600  1.00  0.00     0.117 C   
BRANCH  17  18
ATOM     18  N3  UNL     1       0.018   2.398   0.851  1.00  0.00     0.249 N   
ATOM     19  H8  UNL     1       0.564   3.029   1.443  1.00  0.00     0.199 HD  
ATOM     20  H9  UNL     1      -0.867   2.880   0.633  1.00  0.00     0.199 HD  
BRANCH  18  21
ATOM     21  C10 UNL     1       0.734   2.205  -0.448  1.00  0.00     0.164 C   
BRANCH  21  22
ATOM     22  C11 UNL     1       2.097   1.594  -0.277  1.00  0.00    -0.002 A   
ATOM     23  C12 UNL     1       2.351   0.280  -0.740  1.00  0.00     0.012 A   
ATOM     24  C16 UNL     1       3.120   2.309   0.372  1.00  0.00     0.045 A   
ATOM     25  C13 UNL     1       3.602  -0.320  -0.553  1.00  0.00     0.037 A   
ATOM     26  C15 UNL     1       4.339   1.687   0.545  1.00  0.00     0.109 A   
ATOM     27  C14 UNL     1       4.574   0.411   0.097  1.00  0.00     0.108 A   
ATOM     28  O3  UNL     1       5.423   2.231   1.159  1.00  0.00    -0.316 OA  
ATOM     29  O4  UNL     1       5.836  -0.008   0.365  1.00  0.00    -0.316 OA  
ATOM     30  C17 UNL     1       6.374   1.147   1.046  1.00  0.00     0.337 C   
ENDBRANCH  21  22
ENDBRANCH  18  21
ENDBRANCH  17  18
BRANCH  17  31
ATOM     31  C18 UNL     1      -0.717   1.468   3.063  1.00  0.00     0.043 C   
ATOM     32  C19 UNL     1       0.479   1.904   3.925  1.00  0.00     0.010 C   
ATOM     33  C22 UNL     1      -1.748   2.577   3.283  1.00  0.00     0.010 C   
ATOM     34  C20 UNL     1      -0.093   2.832   5.000  1.00  0.00     0.001 C   
ATOM     35  C21 UNL     1      -1.597   2.877   4.764  1.00  0.00     0.001 C   
ENDBRANCH  17  31
ENDBRANCH   3  17
TORSDOF 8
