REMARK SMILES CC(C)[C@H]([NH2+]Cc1ccc2c(c1)OCO2)c1cn(C[C@H]2Cc3cccc(F)c3O2)nn1
REMARK SMILES IDX 16 1 17 2 18 3 30 4 31 5 4 7 2 8 1 9 3 10 5 11 6 14 7 15
REMARK SMILES IDX 8 16 12 17 9 18 11 19 10 20 13 21 15 22 14 23 19 24 20 25
REMARK SMILES IDX 21 26 29 27 22 28 28 29 23 30 26 31 24 32 25 33 27 34
REMARK H PARENT 17 6 5 12 5 13
ROOT
ATOM     1   C13 UNL     1      -0.337   2.192   1.004  1.00  0.00     0.127 A   
ATOM     2   C14 UNL     1      -0.382   3.148   0.015  1.00  0.00     0.045 A   
ATOM     3   N2  UNL     1       0.932   3.352  -0.303  1.00  0.00    -0.210 N   
ATOM     4   N3  UNL     1       1.738   2.612   0.477  1.00  0.00    -0.076 NA  
ATOM     5   N4  UNL     1       0.972   1.881   1.271  1.00  0.00    -0.132 NA  
ATOM     6   H18 UNL     1      -1.188   3.637  -0.515  1.00  0.00     0.083 HD  
ENDROOT
BRANCH   1   7
ATOM     7   C4  UNL     1      -1.429   1.424   1.675  1.00  0.00     0.117 C   
BRANCH   7   8
ATOM     8   C2  UNL     1      -1.810   2.008   3.059  1.00  0.00     0.037 C   
ATOM     9   C1  UNL     1      -3.133   1.424   3.571  1.00  0.00     0.014 C   
ATOM     10  C3  UNL     1      -0.728   1.841   4.134  1.00  0.00     0.014 C   
ENDBRANCH   7   8
BRANCH   7  11
ATOM     11  N1  UNL     1      -1.031  -0.023   1.797  1.00  0.00     0.249 N   
ATOM     12  H9  UNL     1      -1.612  -0.529   2.471  1.00  0.00     0.199 HD  
ATOM     13  H10 UNL     1      -0.071  -0.034   2.172  1.00  0.00     0.199 HD  
BRANCH  11  14
ATOM     14  C5  UNL     1      -1.007  -0.768   0.506  1.00  0.00     0.164 C   
BRANCH  14  15
ATOM     15  C6  UNL     1      -0.492  -2.165   0.704  1.00  0.00    -0.002 A   
ATOM     16  C7  UNL     1      -1.386  -3.236   0.938  1.00  0.00     0.012 A   
ATOM     17  C11 UNL     1       0.894  -2.406   0.689  1.00  0.00     0.045 A   
ATOM     18  C8  UNL     1      -0.908  -4.535   1.142  1.00  0.00     0.037 A   
ATOM     19  C10 UNL     1       1.330  -3.698   0.891  1.00  0.00     0.109 A   
ATOM     20  C9  UNL     1       0.455  -4.734   1.110  1.00  0.00     0.108 A   
ATOM     21  O1  UNL     1       2.627  -4.104   0.895  1.00  0.00    -0.316 OA  
ATOM     22  O2  UNL     1       1.090  -5.922   1.281  1.00  0.00    -0.316 OA  
ATOM     23  C12 UNL     1       2.470  -5.521   1.135  1.00  0.00     0.337 C   
ENDBRANCH  14  15
ENDBRANCH  11  14
ENDBRANCH   7  11
ENDBRANCH   1   7
BRANCH   3  24
ATOM     24  C15 UNL     1       1.474   4.172  -1.366  1.00  0.00     0.166 C   
BRANCH  24  25
ATOM     25  C16 UNL     1       1.683   3.413  -2.683  1.00  0.00     0.149 C   
ATOM     26  C17 UNL     1       2.773   2.327  -2.641  1.00  0.00     0.072 C   
ATOM     27  O3  UNL     1       0.422   2.821  -3.109  1.00  0.00    -0.337 OA  
ATOM     28  C18 UNL     1       1.938   1.113  -2.772  1.00  0.00    -0.012 A   
ATOM     29  C23 UNL     1       0.632   1.468  -3.061  1.00  0.00     0.114 A   
ATOM     30  C19 UNL     1       2.314  -0.220  -2.695  1.00  0.00     0.007 A   
ATOM     31  C22 UNL     1      -0.338   0.506  -3.268  1.00  0.00     0.153 A   
ATOM     32  C20 UNL     1       1.341  -1.202  -2.912  1.00  0.00     0.004 A   
ATOM     33  C21 UNL     1       0.016  -0.840  -3.199  1.00  0.00     0.042 A   
ATOM     34  F1  UNL     1      -1.611   0.849  -3.495  1.00  0.00    -0.204 F   
ENDBRANCH  24  25
ENDBRANCH   3  24
TORSDOF 7
