REMARK SMILES CC(C)[C@H]([NH2+]Cc1ccc2c(c1)OCO2)c1cn(C[C@@H]2Cc3cccc(F)c3O2)nn1
REMARK SMILES IDX 16 1 17 2 18 3 30 4 31 5 4 7 2 8 1 9 3 10 5 11 6 14 7 15
REMARK SMILES IDX 8 16 12 17 9 18 11 19 10 20 13 21 15 22 14 23 19 24 20 25
REMARK SMILES IDX 21 26 29 27 22 28 28 29 23 30 26 31 24 32 25 33 27 34
REMARK H PARENT 17 6 5 12 5 13
ROOT
ATOM     1   C13 UNL     1       1.863  -0.126  -1.316  1.00  0.00     0.127 A   
ATOM     2   C14 UNL     1       1.295   1.086  -0.996  1.00  0.00     0.045 A   
ATOM     3   N2  UNL     1       0.815   1.547  -2.188  1.00  0.00    -0.210 N   
ATOM     4   N3  UNL     1       1.105   0.698  -3.189  1.00  0.00    -0.076 NA  
ATOM     5   N4  UNL     1       1.746  -0.336  -2.667  1.00  0.00    -0.132 NA  
ATOM     6   H18 UNL     1       1.134   1.609  -0.063  1.00  0.00     0.083 HD  
ENDROOT
BRANCH   1   7
ATOM     7   C4  UNL     1       2.425  -1.197  -0.440  1.00  0.00     0.117 C   
BRANCH   7   8
ATOM     8   C2  UNL     1       3.973  -1.140  -0.346  1.00  0.00     0.037 C   
ATOM     9   C1  UNL     1       4.497  -2.003   0.809  1.00  0.00     0.014 C   
ATOM     10  C3  UNL     1       4.701  -1.520  -1.640  1.00  0.00     0.014 C   
ENDBRANCH   7   8
BRANCH   7  11
ATOM     11  N1  UNL     1       1.973  -2.558  -0.916  1.00  0.00     0.249 N   
ATOM     12  H9  UNL     1       2.481  -3.297  -0.426  1.00  0.00     0.199 HD  
ATOM     13  H10 UNL     1       2.223  -2.616  -1.912  1.00  0.00     0.199 HD  
BRANCH  11  14
ATOM     14  C5  UNL     1       0.505  -2.833  -0.824  1.00  0.00     0.164 C   
BRANCH  14  15
ATOM     15  C6  UNL     1      -0.014  -2.818   0.587  1.00  0.00    -0.002 A   
ATOM     16  C7  UNL     1      -0.855  -1.767   1.025  1.00  0.00     0.012 A   
ATOM     17  C11 UNL     1       0.356  -3.830   1.491  1.00  0.00     0.045 A   
ATOM     18  C8  UNL     1      -1.317  -1.716   2.345  1.00  0.00     0.037 A   
ATOM     19  C10 UNL     1      -0.116  -3.749   2.785  1.00  0.00     0.109 A   
ATOM     20  C9  UNL     1      -0.927  -2.722   3.201  1.00  0.00     0.108 A   
ATOM     21  O1  UNL     1       0.152  -4.635   3.779  1.00  0.00    -0.316 OA  
ATOM     22  O2  UNL     1      -1.274  -2.834   4.509  1.00  0.00    -0.316 OA  
ATOM     23  C12 UNL     1      -0.613  -4.066   4.866  1.00  0.00     0.337 C   
ENDBRANCH  14  15
ENDBRANCH  11  14
ENDBRANCH   7  11
ENDBRANCH   1   7
BRANCH   3  24
ATOM     24  C15 UNL     1      -0.032   2.702  -2.416  1.00  0.00     0.166 C   
BRANCH  24  25
ATOM     25  C16 UNL     1      -1.507   2.291  -2.507  1.00  0.00     0.149 C   
ATOM     26  C17 UNL     1      -2.436   3.500  -2.711  1.00  0.00     0.072 C   
ATOM     27  O3  UNL     1      -1.888   1.619  -1.270  1.00  0.00    -0.337 OA  
ATOM     28  C18 UNL     1      -2.915   3.682  -1.321  1.00  0.00    -0.012 A   
ATOM     29  C23 UNL     1      -2.592   2.563  -0.570  1.00  0.00     0.114 A   
ATOM     30  C19 UNL     1      -3.636   4.724  -0.764  1.00  0.00     0.007 A   
ATOM     31  C22 UNL     1      -2.967   2.452   0.753  1.00  0.00     0.153 A   
ATOM     32  C20 UNL     1      -4.017   4.626   0.580  1.00  0.00     0.004 A   
ATOM     33  C21 UNL     1      -3.683   3.491   1.339  1.00  0.00     0.042 A   
ATOM     34  F1  UNL     1      -2.635   1.371   1.471  1.00  0.00    -0.204 F   
ENDBRANCH  24  25
ENDBRANCH   3  24
TORSDOF 7
