REMARK SMILES c1ccc2[nH]c(Cn3cc([C@@H]([NH2+]Cc4ccc5c(c4)OCO5)C4CCCCC4)nn3)cc2c1
REMARK SMILES IDX 8 1 9 2 10 3 29 4 30 5 7 7 6 8 1 9 2 10 33 11 3 12 32 13
REMARK SMILES IDX 4 14 31 15 5 16 11 18 12 19 13 22 14 23 15 24 19 25 16 26
REMARK SMILES IDX 18 27 17 28 20 29 22 30 21 31 23 32 24 33 28 34 25 35 27 36
REMARK SMILES IDX 26 37
REMARK H PARENT 9 6 5 17 12 20 12 21
ROOT
ATOM     1   N2  UNL     1      -0.237  -2.559   1.556  1.00  0.00    -0.206 N   
ATOM     2   C7  UNL     1      -0.194  -1.194   1.626  1.00  0.00     0.046 A   
ATOM     3   C8  UNL     1       0.860  -0.853   0.808  1.00  0.00     0.127 A   
ATOM     4   N4  UNL     1       1.452  -1.998   0.337  1.00  0.00    -0.132 NA  
ATOM     5   N5  UNL     1       0.774  -3.034   0.802  1.00  0.00    -0.076 NA  
ATOM     6   H7  UNL     1      -0.922  -0.622   2.185  1.00  0.00     0.083 HD  
ENDROOT
BRANCH   1   7
ATOM     7   C6  UNL     1      -1.238  -3.457   2.113  1.00  0.00     0.185 C   
BRANCH   7   8
ATOM     8   C5  UNL     1      -2.482  -3.406   1.292  1.00  0.00     0.027 A   
ATOM     9   C1  UNL     1      -6.384  -3.046  -1.157  1.00  0.00     0.001 A   
ATOM     10  C2  UNL     1      -5.581  -3.678  -2.104  1.00  0.00     0.002 A   
ATOM     11  C26 UNL     1      -5.881  -2.734   0.112  1.00  0.00     0.010 A   
ATOM     12  C3  UNL     1      -4.256  -4.018  -1.815  1.00  0.00     0.024 A   
ATOM     13  C25 UNL     1      -4.548  -3.064   0.424  1.00  0.00    -0.003 A   
ATOM     14  C4  UNL     1      -3.769  -3.698  -0.542  1.00  0.00     0.037 A   
ATOM     15  C24 UNL     1      -3.733  -2.895   1.576  1.00  0.00     0.031 A   
ATOM     16  N1  UNL     1      -2.529  -3.916   0.013  1.00  0.00    -0.316 N   
ATOM     17  H4  UNL     1      -1.762  -4.364  -0.471  1.00  0.00     0.153 HD  
ENDBRANCH   7   8
ENDBRANCH   1   7
BRANCH   3  18
ATOM     18  C9  UNL     1       1.418   0.478   0.421  1.00  0.00     0.117 C   
BRANCH  18  19
ATOM     19  N3  UNL     1       2.909   0.364   0.176  1.00  0.00     0.249 N   
ATOM     20  H9  UNL     1       3.246   1.171  -0.356  1.00  0.00     0.199 HD  
ATOM     21  H10 UNL     1       3.039  -0.470  -0.414  1.00  0.00     0.199 HD  
BRANCH  19  22
ATOM     22  C10 UNL     1       3.764   0.180   1.386  1.00  0.00     0.164 C   
BRANCH  22  23
ATOM     23  C11 UNL     1       3.809   1.404   2.258  1.00  0.00    -0.002 A   
ATOM     24  C12 UNL     1       4.520   2.556   1.844  1.00  0.00     0.012 A   
ATOM     25  C16 UNL     1       3.114   1.422   3.480  1.00  0.00     0.045 A   
ATOM     26  C13 UNL     1       4.531   3.714   2.629  1.00  0.00     0.037 A   
ATOM     27  C15 UNL     1       3.145   2.580   4.229  1.00  0.00     0.109 A   
ATOM     28  C14 UNL     1       3.832   3.695   3.815  1.00  0.00     0.108 A   
ATOM     29  O1  UNL     1       2.522   2.767   5.422  1.00  0.00    -0.316 OA  
ATOM     30  O2  UNL     1       3.729   4.724   4.695  1.00  0.00    -0.316 OA  
ATOM     31  C17 UNL     1       2.922   4.122   5.731  1.00  0.00     0.337 C   
ENDBRANCH  22  23
ENDBRANCH  19  22
ENDBRANCH  18  19
BRANCH  18  32
ATOM     32  C18 UNL     1       0.766   1.096  -0.848  1.00  0.00     0.043 C   
ATOM     33  C19 UNL     1      -0.711   1.468  -0.606  1.00  0.00     0.010 C   
ATOM     34  C23 UNL     1       0.894   0.227  -2.114  1.00  0.00     0.010 C   
ATOM     35  C20 UNL     1      -1.329   2.150  -1.825  1.00  0.00     0.001 C   
ATOM     36  C22 UNL     1       0.265   0.906  -3.331  1.00  0.00     0.001 C   
ATOM     37  C21 UNL     1      -1.189   1.290  -3.076  1.00  0.00     0.000 C   
ENDBRANCH  18  32
ENDBRANCH   3  18
TORSDOF 7
