REMARK SMILES COc1ccc(OC)c(-n2cc([C@@H]([NH2+]Cc3ccc4c(c3)OCO4)C(C)(C)C)nn2)c1
REMARK SMILES IDX 10 1 11 2 12 3 29 4 30 5 9 6 3 7 4 8 31 9 5 10 6 11 2 12
REMARK SMILES IDX 1 13 7 14 8 15 13 16 14 17 15 20 16 21 17 22 21 23 18 24
REMARK SMILES IDX 20 25 19 26 22 27 24 28 23 29 25 30 26 31 27 32 28 33
REMARK H PARENT 14 18 14 19
ROOT
ATOM     1   N1  UNL     1      -1.478   1.241  -1.404  1.00  0.00    -0.178 N   
ATOM     2   C8  UNL     1      -0.542   1.165  -0.388  1.00  0.00     0.135 A   
ATOM     3   C9  UNL     1       0.166   0.007  -0.620  1.00  0.00     0.128 A   
ATOM     4   N3  UNL     1      -0.350  -0.618  -1.714  1.00  0.00    -0.131 NA  
ATOM     5   N4  UNL     1      -1.341   0.123  -2.177  1.00  0.00    -0.071 NA  
ENDROOT
BRANCH   1   6
ATOM     6   C7  UNL     1      -2.470   2.221  -1.701  1.00  0.00     0.090 A   
ATOM     7   C2  UNL     1      -4.263   2.910  -3.224  1.00  0.00     0.077 A   
ATOM     8   C3  UNL     1      -4.470   4.045  -2.453  1.00  0.00     0.036 A   
ATOM     9   C23 UNL     1      -3.269   2.006  -2.845  1.00  0.00     0.062 A   
ATOM     10  C4  UNL     1      -3.688   4.273  -1.314  1.00  0.00     0.038 A   
ATOM     11  C5  UNL     1      -2.683   3.374  -0.922  1.00  0.00     0.098 A   
BRANCH   7  12
ATOM     12  O1  UNL     1      -4.949   2.565  -4.354  1.00  0.00    -0.349 OA  
ATOM     13  C1  UNL     1      -5.940   3.477  -4.814  1.00  0.00     0.203 C   
ENDBRANCH   7  12
BRANCH  11  14
ATOM     14  O2  UNL     1      -1.913   3.570   0.191  1.00  0.00    -0.347 OA  
ATOM     15  C6  UNL     1      -2.091   4.773   0.934  1.00  0.00     0.203 C   
ENDBRANCH  11  14
ENDBRANCH   1   6
BRANCH   3  16
ATOM     16  C10 UNL     1       1.277  -0.640   0.149  1.00  0.00     0.120 C   
BRANCH  16  17
ATOM     17  N2  UNL     1       1.090  -2.145   0.107  1.00  0.00     0.250 N   
ATOM     18  H11 UNL     1       0.923  -2.386  -0.881  1.00  0.00     0.199 HD  
ATOM     19  H12 UNL     1       1.939  -2.634   0.396  1.00  0.00     0.199 HD  
BRANCH  17  20
ATOM     20  C11 UNL     1      -0.062  -2.691   0.888  1.00  0.00     0.164 C   
BRANCH  20  21
ATOM     21  C12 UNL     1       0.101  -2.509   2.372  1.00  0.00    -0.002 A   
ATOM     22  C13 UNL     1      -0.721  -1.592   3.071  1.00  0.00     0.012 A   
ATOM     23  C17 UNL     1       1.089  -3.224   3.071  1.00  0.00     0.045 A   
ATOM     24  C14 UNL     1      -0.557  -1.381   4.445  1.00  0.00     0.037 A   
ATOM     25  C16 UNL     1       1.225  -2.991   4.424  1.00  0.00     0.109 A   
ATOM     26  C15 UNL     1       0.428  -2.094   5.092  1.00  0.00     0.108 A   
ATOM     27  O3  UNL     1       2.132  -3.589   5.241  1.00  0.00    -0.316 OA  
ATOM     28  O4  UNL     1       0.731  -2.015   6.413  1.00  0.00    -0.316 OA  
ATOM     29  C18 UNL     1       1.794  -2.987   6.512  1.00  0.00     0.337 C   
ENDBRANCH  20  21
ENDBRANCH  17  20
ENDBRANCH  16  17
BRANCH  16  30
ATOM     30  C19 UNL     1       2.715  -0.257  -0.354  1.00  0.00     0.010 C   
ATOM     31  C20 UNL     1       3.788  -0.846   0.592  1.00  0.00     0.017 C   
ATOM     32  C21 UNL     1       2.895   1.278  -0.335  1.00  0.00     0.017 C   
ATOM     33  C22 UNL     1       3.002  -0.760  -1.783  1.00  0.00     0.017 C   
ENDBRANCH  16  30
ENDBRANCH   3  16
TORSDOF 8
