REMARK SMILES CC(C)[C@H]([NH2+]Cc1ccc2c(c1)OCO2)c1cn(CCc2[nH]nc3c2CCC3)nn1
REMARK SMILES IDX 16 1 17 2 18 3 29 4 30 5 4 7 2 8 1 9 3 10 5 11 6 14 7 15
REMARK SMILES IDX 8 16 12 17 9 18 11 19 10 20 13 21 15 22 14 23 19 24 20 25
REMARK SMILES IDX 21 26 22 27 25 28 23 29 24 30 26 31 28 32 27 33
REMARK H PARENT 17 6 5 12 5 13 22 34
ROOT
ATOM     1   C13 UNL     1      -1.778  -1.754  -0.920  1.00  0.00     0.127 A   
ATOM     2   C14 UNL     1      -2.730  -1.019  -1.597  1.00  0.00     0.045 A   
ATOM     3   N2  UNL     1      -3.512  -0.499  -0.599  1.00  0.00    -0.212 N   
ATOM     4   N5  UNL     1      -3.181  -1.034   0.592  1.00  0.00    -0.076 NA  
ATOM     5   N6  UNL     1      -2.117  -1.802   0.406  1.00  0.00    -0.132 NA  
ATOM     6   H18 UNL     1      -2.813  -0.688  -2.622  1.00  0.00     0.083 HD  
ENDROOT
BRANCH   1   7
ATOM     7   C4  UNL     1      -0.467  -2.285  -1.415  1.00  0.00     0.117 C   
BRANCH   7   8
ATOM     8   C2  UNL     1      -0.349  -3.830  -1.399  1.00  0.00     0.037 C   
ATOM     9   C1  UNL     1      -1.512  -4.490  -2.155  1.00  0.00     0.014 C   
ATOM     10  C3  UNL     1       0.966  -4.314  -2.027  1.00  0.00     0.014 C   
ENDBRANCH   7   8
BRANCH   7  11
ATOM     11  N1  UNL     1       0.690  -1.619  -0.706  1.00  0.00     0.249 N   
ATOM     12  H9  UNL     1       0.466  -0.597  -0.649  1.00  0.00     0.199 HD  
ATOM     13  H10 UNL     1       1.530  -1.640  -1.288  1.00  0.00     0.199 HD  
BRANCH  11  14
ATOM     14  C5  UNL     1       1.029  -2.063   0.673  1.00  0.00     0.164 C   
BRANCH  14  15
ATOM     15  C6  UNL     1       1.979  -1.111   1.348  1.00  0.00    -0.002 A   
ATOM     16  C7  UNL     1       3.330  -1.024   0.934  1.00  0.00     0.012 A   
ATOM     17  C11 UNL     1       1.516  -0.276   2.381  1.00  0.00     0.045 A   
ATOM     18  C8  UNL     1       4.208  -0.116   1.535  1.00  0.00     0.037 A   
ATOM     19  C10 UNL     1       2.406   0.610   2.950  1.00  0.00     0.109 A   
ATOM     20  C9  UNL     1       3.714   0.688   2.539  1.00  0.00     0.108 A   
ATOM     21  O1  UNL     1       2.118   1.488   3.947  1.00  0.00    -0.316 OA  
ATOM     22  O2  UNL     1       4.418   1.622   3.229  1.00  0.00    -0.316 OA  
ATOM     23  C12 UNL     1       3.407   2.117   4.132  1.00  0.00     0.337 C   
ENDBRANCH  14  15
ENDBRANCH  11  14
ENDBRANCH   7  11
ENDBRANCH   1   7
BRANCH   3  24
ATOM     24  C15 UNL     1      -4.267   0.742  -0.665  1.00  0.00     0.140 C   
BRANCH  24  25
ATOM     25  C16 UNL     1      -3.495   1.940  -0.076  1.00  0.00     0.074 C   
BRANCH  25  26
ATOM     26  C17 UNL     1      -2.074   1.977  -0.540  1.00  0.00     0.032 A   
ATOM     27  N3  UNL     1      -1.066   1.346   0.170  1.00  0.00    -0.242 N   
ATOM     28  C19 UNL     1      -1.449   2.455  -1.657  1.00  0.00    -0.006 A   
ATOM     29  N4  UNL     1       0.055   1.111  -0.585  1.00  0.00    -0.189 NA  
ATOM     30  C18 UNL     1      -0.158   1.924  -1.617  1.00  0.00     0.063 A   
ATOM     31  C20 UNL     1      -1.700   3.217  -2.892  1.00  0.00     0.039 C   
ATOM     32  C22 UNL     1       0.639   2.260  -2.812  1.00  0.00     0.058 C   
ATOM     33  C21 UNL     1      -0.259   3.348  -3.494  1.00  0.00     0.011 C   
ATOM     34  H23 UNL     1      -1.148   0.909   1.085  1.00  0.00     0.175 HD  
ENDBRANCH  25  26
ENDBRANCH  24  25
ENDBRANCH   3  24
TORSDOF 8
