REMARK SMILES CC(C)(C)[C@H]([NH2+]Cc1ccc2c(c1)OCO2)c1cn(CCc2c[nH]c3ncccc23)nn1
REMARK SMILES IDX 17 1 18 2 19 3 31 4 32 5 5 7 2 8 1 9 3 10 4 11 6 12 7 15
REMARK SMILES IDX 8 16 9 17 13 18 10 19 12 20 11 21 14 22 16 23 15 24 20 25
REMARK SMILES IDX 21 26 22 27 23 28 30 29 24 30 25 31 29 32 26 33 28 34 27 35
REMARK H PARENT 18 6 6 13 6 14 24 36
ROOT
ATOM     1   C14 UNL     1      -0.478   1.463  -0.953  1.00  0.00     0.127 A   
ATOM     2   C15 UNL     1      -0.997   2.416  -0.106  1.00  0.00     0.045 A   
ATOM     3   N2  UNL     1      -2.281   2.001   0.107  1.00  0.00    -0.212 N   
ATOM     4   N5  UNL     1      -2.556   0.892  -0.602  1.00  0.00    -0.076 NA  
ATOM     5   N6  UNL     1      -1.454   0.546  -1.250  1.00  0.00    -0.132 NA  
ATOM     6   H20 UNL     1      -0.574   3.274   0.397  1.00  0.00     0.083 HD  
ENDROOT
BRANCH   1   7
ATOM     7   C5  UNL     1       0.924   1.241  -1.431  1.00  0.00     0.120 C   
BRANCH   7   8
ATOM     8   C2  UNL     1       1.196   1.744  -2.891  1.00  0.00     0.010 C   
ATOM     9   C1  UNL     1       0.836   3.242  -3.010  1.00  0.00     0.017 C   
ATOM     10  C3  UNL     1       0.393   0.966  -3.953  1.00  0.00     0.017 C   
ATOM     11  C4  UNL     1       2.699   1.613  -3.232  1.00  0.00     0.017 C   
ENDBRANCH   7   8
BRANCH   7  12
ATOM     12  N1  UNL     1       1.256  -0.226  -1.302  1.00  0.00     0.250 N   
ATOM     13  H11 UNL     1       2.112  -0.480  -1.800  1.00  0.00     0.199 HD  
ATOM     14  H12 UNL     1       0.486  -0.743  -1.752  1.00  0.00     0.199 HD  
BRANCH  12  15
ATOM     15  C6  UNL     1       1.357  -0.731   0.100  1.00  0.00     0.164 C   
BRANCH  15  16
ATOM     16  C7  UNL     1       1.669  -2.202   0.106  1.00  0.00    -0.002 A   
ATOM     17  C8  UNL     1       2.977  -2.658   0.391  1.00  0.00     0.012 A   
ATOM     18  C12 UNL     1       0.661  -3.134  -0.201  1.00  0.00     0.045 A   
ATOM     19  C9  UNL     1       3.279  -4.024   0.379  1.00  0.00     0.037 A   
ATOM     20  C11 UNL     1       0.992  -4.472  -0.202  1.00  0.00     0.109 A   
ATOM     21  C10 UNL     1       2.264  -4.905   0.079  1.00  0.00     0.108 A   
ATOM     22  O1  UNL     1       0.141  -5.497  -0.467  1.00  0.00    -0.316 OA  
ATOM     23  O2  UNL     1       2.375  -6.258   0.024  1.00  0.00    -0.316 OA  
ATOM     24  C13 UNL     1       1.023  -6.633  -0.317  1.00  0.00     0.337 C   
ENDBRANCH  15  16
ENDBRANCH  12  15
ENDBRANCH   7  12
ENDBRANCH   1   7
BRANCH   3  25
ATOM     25  C16 UNL     1      -3.235   2.533   1.059  1.00  0.00     0.139 C   
BRANCH  25  26
ATOM     26  C17 UNL     1      -3.389   1.656   2.304  1.00  0.00     0.059 C   
BRANCH  26  27
ATOM     27  C18 UNL     1      -2.082   1.339   2.972  1.00  0.00    -0.022 A   
ATOM     28  C19 UNL     1      -1.241   2.231   3.617  1.00  0.00     0.077 A   
ATOM     29  C24 UNL     1      -1.455   0.053   3.049  1.00  0.00     0.019 A   
ATOM     30  N3  UNL     1      -0.132   1.545   4.047  1.00  0.00    -0.305 N   
ATOM     31  C20 UNL     1      -0.228   0.233   3.676  1.00  0.00     0.129 A   
ATOM     32  C23 UNL     1      -1.782  -1.254   2.648  1.00  0.00     0.013 A   
ATOM     33  N4  UNL     1       0.717  -0.696   3.910  1.00  0.00    -0.241 NA  
ATOM     34  C22 UNL     1      -0.869  -2.270   2.937  1.00  0.00     0.021 A   
ATOM     35  C21 UNL     1       0.331  -1.943   3.555  1.00  0.00     0.113 A   
ATOM     36  H26 UNL     1       0.640   1.922   4.578  1.00  0.00     0.154 HD  
ENDBRANCH  26  27
ENDBRANCH  25  26
ENDBRANCH   3  25
TORSDOF 8
