REMARK SMILES CC(C)(C)[C@H]([NH2+]Cc1ccc2c(c1)OCO2)c1cn(Cc2ccc(Cl)nc2)nn1
REMARK SMILES IDX 17 1 18 2 19 3 28 4 29 5 5 7 2 8 1 9 3 10 4 11 6 12 7 15
REMARK SMILES IDX 8 16 9 17 13 18 10 19 12 20 11 21 14 22 16 23 15 24 20 25
REMARK SMILES IDX 21 26 22 27 27 28 23 29 26 30 24 31 25 32
REMARK H PARENT 18 6 6 13 6 14
ROOT
ATOM     1   C14 UNL     1      -1.264  -0.535   1.254  1.00  0.00     0.127 A   
ATOM     2   C15 UNL     1       0.106  -0.562   1.109  1.00  0.00     0.046 A   
ATOM     3   N2  UNL     1       0.421  -1.890   1.204  1.00  0.00    -0.208 N   
ATOM     4   N4  UNL     1      -0.686  -2.636   1.385  1.00  0.00    -0.076 NA  
ATOM     5   N5  UNL     1      -1.725  -1.819   1.410  1.00  0.00    -0.132 NA  
ATOM     6   H20 UNL     1       0.852   0.203   0.947  1.00  0.00     0.083 HD  
ENDROOT
BRANCH   1   7
ATOM     7   C5  UNL     1      -2.254   0.591   1.189  1.00  0.00     0.120 C   
BRANCH   7   8
ATOM     8   C2  UNL     1      -2.604   1.222   2.582  1.00  0.00     0.010 C   
ATOM     9   C1  UNL     1      -3.541   2.438   2.393  1.00  0.00     0.017 C   
ATOM     10  C3  UNL     1      -1.320   1.746   3.265  1.00  0.00     0.017 C   
ATOM     11  C4  UNL     1      -3.284   0.222   3.538  1.00  0.00     0.017 C   
ENDBRANCH   7   8
BRANCH   7  12
ATOM     12  N1  UNL     1      -3.509   0.076   0.505  1.00  0.00     0.250 N   
ATOM     13  H11 UNL     1      -3.482  -0.952   0.608  1.00  0.00     0.199 HD  
ATOM     14  H12 UNL     1      -4.356   0.369   0.999  1.00  0.00     0.199 HD  
BRANCH  12  15
ATOM     15  C6  UNL     1      -3.655   0.397  -0.942  1.00  0.00     0.164 C   
BRANCH  15  16
ATOM     16  C7  UNL     1      -2.566  -0.173  -1.807  1.00  0.00    -0.002 A   
ATOM     17  C8  UNL     1      -2.496  -1.567  -2.048  1.00  0.00     0.012 A   
ATOM     18  C12 UNL     1      -1.591   0.673  -2.364  1.00  0.00     0.045 A   
ATOM     19  C9  UNL     1      -1.472  -2.111  -2.831  1.00  0.00     0.037 A   
ATOM     20  C11 UNL     1      -0.595   0.103  -3.129  1.00  0.00     0.109 A   
ATOM     21  C10 UNL     1      -0.538  -1.248  -3.359  1.00  0.00     0.108 A   
ATOM     22  O1  UNL     1       0.419   0.777  -3.732  1.00  0.00    -0.316 OA  
ATOM     23  O2  UNL     1       0.510  -1.596  -4.147  1.00  0.00    -0.316 OA  
ATOM     24  C13 UNL     1       1.113  -0.307  -4.393  1.00  0.00     0.337 C   
ENDBRANCH  15  16
ENDBRANCH  12  15
ENDBRANCH   7  12
ENDBRANCH   1   7
BRANCH   3  25
ATOM     25  C16 UNL     1       1.735  -2.508   1.179  1.00  0.00     0.171 C   
BRANCH  25  26
ATOM     26  C17 UNL     1       2.185  -2.782  -0.226  1.00  0.00    -0.010 A   
ATOM     27  C18 UNL     1       1.788  -3.936  -0.911  1.00  0.00     0.010 A   
ATOM     28  C21 UNL     1       3.007  -1.885  -0.904  1.00  0.00     0.118 A   
ATOM     29  C19 UNL     1       2.232  -4.154  -2.213  1.00  0.00     0.041 A   
ATOM     30  N3  UNL     1       3.443  -2.064  -2.168  1.00  0.00    -0.244 NA  
ATOM     31  C20 UNL     1       3.052  -3.199  -2.785  1.00  0.00     0.129 A   
ATOM     32  CL1 UNL     1       3.641  -3.381  -4.384  1.00  0.00    -0.062 Cl  
ENDBRANCH  25  26
ENDBRANCH   3  25
TORSDOF 7
