REMARK SMILES CC(C)(C)[C@H]([NH2+]Cc1ccc2c(c1)OCO2)c1cn(Cc2csc(C3CC3)n2)nn1
REMARK SMILES IDX 17 1 18 2 19 3 29 4 30 5 5 7 2 8 1 9 3 10 4 11 6 12 7 15
REMARK SMILES IDX 8 16 9 17 13 18 10 19 12 20 11 21 14 22 16 23 15 24 20 25
REMARK SMILES IDX 21 26 22 27 28 28 23 29 24 30 25 31 26 32 27 33
REMARK H PARENT 18 6 6 13 6 14
ROOT
ATOM     1   C14 UNL     1       0.415   1.194   0.924  1.00  0.00     0.127 A   
ATOM     2   C15 UNL     1       1.749   1.477   1.103  1.00  0.00     0.046 A   
ATOM     3   N2  UNL     1       1.984   1.157   2.414  1.00  0.00    -0.206 N   
ATOM     4   N4  UNL     1       0.860   0.708   3.006  1.00  0.00    -0.076 NA  
ATOM     5   N5  UNL     1      -0.108   0.725   2.103  1.00  0.00    -0.132 NA  
ATOM     6   H20 UNL     1       2.537   1.830   0.450  1.00  0.00     0.083 HD  
ENDROOT
BRANCH   1   7
ATOM     7   C5  UNL     1      -0.446   1.229  -0.303  1.00  0.00     0.120 C   
BRANCH   7   8
ATOM     8   C2  UNL     1      -1.245   2.566  -0.491  1.00  0.00     0.010 C   
ATOM     9   C1  UNL     1      -0.274   3.768  -0.510  1.00  0.00     0.017 C   
ATOM     10  C3  UNL     1      -2.285   2.800   0.621  1.00  0.00     0.017 C   
ATOM     11  C4  UNL     1      -1.981   2.563  -1.852  1.00  0.00     0.017 C   
ENDBRANCH   7   8
BRANCH   7  12
ATOM     12  N1  UNL     1      -1.392   0.051  -0.256  1.00  0.00     0.250 N   
ATOM     13  H11 UNL     1      -1.779   0.023   0.699  1.00  0.00     0.199 HD  
ATOM     14  H12 UNL     1      -2.191   0.162  -0.885  1.00  0.00     0.199 HD  
BRANCH  12  15
ATOM     15  C6  UNL     1      -0.764  -1.276  -0.510  1.00  0.00     0.164 C   
BRANCH  15  16
ATOM     16  C7  UNL     1      -1.778  -2.373  -0.348  1.00  0.00    -0.002 A   
ATOM     17  C8  UNL     1      -2.030  -2.921   0.933  1.00  0.00     0.012 A   
ATOM     18  C12 UNL     1      -2.520  -2.824  -1.453  1.00  0.00     0.045 A   
ATOM     19  C9  UNL     1      -3.000  -3.913   1.111  1.00  0.00     0.037 A   
ATOM     20  C11 UNL     1      -3.467  -3.804  -1.242  1.00  0.00     0.109 A   
ATOM     21  C10 UNL     1      -3.702  -4.333   0.003  1.00  0.00     0.108 A   
ATOM     22  O1  UNL     1      -4.263  -4.351  -2.197  1.00  0.00    -0.316 OA  
ATOM     23  O2  UNL     1      -4.675  -5.281  -0.012  1.00  0.00    -0.316 OA  
ATOM     24  C13 UNL     1      -5.015  -5.306  -1.414  1.00  0.00     0.337 C   
ENDBRANCH  15  16
ENDBRANCH  12  15
ENDBRANCH   7  12
ENDBRANCH   1   7
BRANCH   3  25
ATOM     25  C16 UNL     1       3.231   1.252   3.151  1.00  0.00     0.190 C   
BRANCH  25  26
ATOM     26  C17 UNL     1       4.094   0.074   2.845  1.00  0.00     0.067 A   
ATOM     27  C18 UNL     1       4.407  -0.964   3.704  1.00  0.00     0.073 A   
ATOM     28  N3  UNL     1       4.670  -0.026   1.583  1.00  0.00    -0.248 NA  
ATOM     29  S1  UNL     1       5.451  -2.079   2.926  1.00  0.00    -0.080 S   
ATOM     30  C19 UNL     1       5.413  -1.110   1.519  1.00  0.00     0.081 A   
BRANCH  30  31
ATOM     31  C20 UNL     1       6.218  -1.492   0.230  1.00  0.00     0.045 C   
ATOM     32  C21 UNL     1       7.141  -0.466  -0.376  1.00  0.00     0.011 C   
ATOM     33  C22 UNL     1       5.874  -0.844  -1.087  1.00  0.00     0.011 C   
ENDBRANCH  30  31
ENDBRANCH  25  26
ENDBRANCH   3  25
TORSDOF 8
