REMARK SMILES Cc1n[nH]c(C)c1-n1cc([C@H](CC(C)C)[NH2+]Cc2ccc3c(c2)OCO3)nn1
REMARK SMILES IDX 11 1 10 2 8 3 9 4 28 5 27 6 7 7 2 8 3 9 4 10 5 11 1 12 6 14
REMARK SMILES IDX 12 15 13 16 14 17 15 18 16 19 17 22 18 23 19 24 23 25 20 26
REMARK SMILES IDX 22 27 21 28 24 29 26 30 25 31
REMARK H PARENT 4 13 16 20 16 21
ROOT
ATOM     1   C8  UNL     1       0.968  -1.603  -0.539  1.00  0.00     0.114 C   
ENDROOT
BRANCH   1   2
ATOM     2   C7  UNL     1       0.148  -0.849   0.454  1.00  0.00     0.127 A   
ATOM     3   N3  UNL     1      -1.166   0.544   1.526  1.00  0.00    -0.177 N   
ATOM     4   C6  UNL     1      -0.996  -0.098   0.311  1.00  0.00     0.135 A   
ATOM     5   N6  UNL     1      -0.204   0.096   2.377  1.00  0.00    -0.071 NA  
ATOM     6   N5  UNL     1       0.602  -0.731   1.734  1.00  0.00    -0.131 NA  
BRANCH   3   7
ATOM     7   C5  UNL     1      -2.112   1.548   1.861  1.00  0.00     0.099 A   
ATOM     8   C2  UNL     1      -2.184   2.231   3.107  1.00  0.00     0.081 A   
ATOM     9   N1  UNL     1      -3.155   3.151   3.095  1.00  0.00    -0.187 NA  
ATOM     10  N2  UNL     1      -3.714   3.039   1.887  1.00  0.00    -0.241 N   
ATOM     11  C3  UNL     1      -3.120   2.098   1.086  1.00  0.00     0.047 A   
ATOM     12  C1  UNL     1      -1.354   2.075   4.330  1.00  0.00     0.071 C   
ATOM     13  H4  UNL     1      -4.499   3.645   1.669  1.00  0.00     0.175 HD  
ATOM     14  C4  UNL     1      -3.610   1.875  -0.294  1.00  0.00     0.065 C   
ENDBRANCH   3   7
ENDBRANCH   1   2
BRANCH   1  15
ATOM     15  C9  UNL     1       0.911  -3.126  -0.321  1.00  0.00     0.064 C   
BRANCH  15  16
ATOM     16  C10 UNL     1      -0.491  -3.755  -0.472  1.00  0.00    -0.012 C   
ATOM     17  C11 UNL     1      -1.085  -3.532  -1.864  1.00  0.00     0.007 C   
ATOM     18  C12 UNL     1      -0.417  -5.256  -0.176  1.00  0.00     0.007 C   
ENDBRANCH  15  16
ENDBRANCH   1  15
BRANCH   1  19
ATOM     19  N4  UNL     1       2.422  -1.179  -0.394  1.00  0.00     0.249 N   
ATOM     20  H19 UNL     1       2.549  -0.929   0.600  1.00  0.00     0.199 HD  
ATOM     21  H20 UNL     1       3.046  -1.975  -0.560  1.00  0.00     0.199 HD  
BRANCH  19  22
ATOM     22  C13 UNL     1       2.877  -0.029  -1.235  1.00  0.00     0.164 C   
BRANCH  22  23
ATOM     23  C14 UNL     1       2.079   1.232  -1.052  1.00  0.00    -0.002 A   
ATOM     24  C15 UNL     1       1.227   1.693  -2.086  1.00  0.00     0.012 A   
ATOM     25  C19 UNL     1       2.131   1.939   0.162  1.00  0.00     0.045 A   
ATOM     26  C16 UNL     1       0.413   2.816  -1.903  1.00  0.00     0.037 A   
ATOM     27  C18 UNL     1       1.309   3.037   0.314  1.00  0.00     0.109 A   
ATOM     28  C17 UNL     1       0.469   3.459  -0.686  1.00  0.00     0.108 A   
ATOM     29  O1  UNL     1       1.208   3.799   1.433  1.00  0.00    -0.316 OA  
ATOM     30  O2  UNL     1      -0.270   4.539  -0.322  1.00  0.00    -0.316 OA  
ATOM     31  C20 UNL     1       0.211   4.762   1.023  1.00  0.00     0.337 C   
ENDBRANCH  22  23
ENDBRANCH  19  22
ENDBRANCH   1  19
TORSDOF 7
