REMARK SMILES COc1cccc(-n2cc([C@H](CC(C)C)[NH2+]Cc3ccc4c(c3)OCO4)nn2)c1C
REMARK SMILES IDX 8 1 9 2 10 3 27 4 28 5 7 6 3 7 4 8 29 9 5 10 6 11 30 12 2 13
REMARK SMILES IDX 1 14 11 15 12 16 13 17 14 18 15 19 16 20 17 23 18 24 19 25
REMARK SMILES IDX 23 26 20 27 22 28 21 29 24 30 26 31 25 32
REMARK H PARENT 16 21 16 22
ROOT
ATOM     1   N1  UNL     1       1.524   0.277  -1.010  1.00  0.00    -0.180 N   
ATOM     2   C7  UNL     1       0.418  -0.213  -0.341  1.00  0.00     0.135 A   
ATOM     3   C8  UNL     1      -0.400  -0.738  -1.315  1.00  0.00     0.127 A   
ATOM     4   N3  UNL     1       0.162  -0.512  -2.536  1.00  0.00    -0.131 NA  
ATOM     5   N4  UNL     1       1.294   0.145  -2.348  1.00  0.00    -0.071 NA  
ENDROOT
BRANCH   1   6
ATOM     6   C6  UNL     1       2.699   0.916  -0.518  1.00  0.00     0.063 A   
ATOM     7   C2  UNL     1       4.263   1.620   1.218  1.00  0.00     0.079 A   
ATOM     8   C3  UNL     1       4.934   2.419   0.288  1.00  0.00     0.034 A   
ATOM     9   C22 UNL     1       3.158   0.821   0.819  1.00  0.00     0.003 A   
ATOM     10  C4  UNL     1       4.528   2.442  -1.040  1.00  0.00     0.005 A   
ATOM     11  C5  UNL     1       3.421   1.700  -1.441  1.00  0.00     0.026 A   
ATOM     12  C23 UNL     1       2.571  -0.117   1.846  1.00  0.00     0.049 C   
BRANCH   7  13
ATOM     13  O1  UNL     1       4.605   1.546   2.546  1.00  0.00    -0.349 OA  
ATOM     14  C1  UNL     1       5.736   2.288   2.986  1.00  0.00     0.203 C   
ENDBRANCH   7  13
ENDBRANCH   1   6
BRANCH   3  15
ATOM     15  C9  UNL     1      -1.736  -1.395  -1.227  1.00  0.00     0.114 C   
BRANCH  15  16
ATOM     16  C10 UNL     1      -1.641  -2.933  -1.283  1.00  0.00     0.064 C   
BRANCH  16  17
ATOM     17  C11 UNL     1      -0.875  -3.589  -0.114  1.00  0.00    -0.012 C   
ATOM     18  C12 UNL     1      -1.517  -3.296   1.243  1.00  0.00     0.007 C   
ATOM     19  C13 UNL     1      -0.802  -5.104  -0.332  1.00  0.00     0.007 C   
ENDBRANCH  16  17
ENDBRANCH  15  16
BRANCH  15  20
ATOM     20  N2  UNL     1      -2.610  -0.972  -2.393  1.00  0.00     0.249 N   
ATOM     21  H18 UNL     1      -3.448  -1.560  -2.433  1.00  0.00     0.199 HD  
ATOM     22  H19 UNL     1      -2.067  -1.157  -3.248  1.00  0.00     0.199 HD  
BRANCH  20  23
ATOM     23  C14 UNL     1      -3.021   0.464  -2.432  1.00  0.00     0.164 C   
BRANCH  23  24
ATOM     24  C15 UNL     1      -3.872   0.866  -1.259  1.00  0.00    -0.002 A   
ATOM     25  C16 UNL     1      -3.350   1.726  -0.263  1.00  0.00     0.012 A   
ATOM     26  C20 UNL     1      -5.179   0.367  -1.127  1.00  0.00     0.045 A   
ATOM     27  C17 UNL     1      -4.115   2.080   0.854  1.00  0.00     0.037 A   
ATOM     28  C19 UNL     1      -5.905   0.735  -0.012  1.00  0.00     0.109 A   
ATOM     29  C18 UNL     1      -5.388   1.565   0.951  1.00  0.00     0.108 A   
ATOM     30  O2  UNL     1      -7.173   0.336   0.271  1.00  0.00    -0.316 OA  
ATOM     31  O3  UNL     1      -6.266   1.796   1.961  1.00  0.00    -0.316 OA  
ATOM     32  C21 UNL     1      -7.411   1.041   1.511  1.00  0.00     0.337 C   
ENDBRANCH  23  24
ENDBRANCH  20  23
ENDBRANCH  15  20
ENDBRANCH   3  15
TORSDOF 8
