REMARK SMILES Cc1cc(CO)nc(-n2cc([C@@H]([NH2+]Cc3ccc4c(c3)OCO4)C(C)C)nn2)c1
REMARK SMILES IDX 9 1 10 2 11 3 27 4 28 5 8 6 2 7 3 8 29 9 4 10 7 11 1 12 5 13
REMARK SMILES IDX 6 14 12 16 13 17 14 20 15 21 16 22 20 23 17 24 19 25 18 26
REMARK SMILES IDX 21 27 23 28 22 29 24 30 25 31 26 32
REMARK H PARENT 6 15 13 18 13 19
ROOT
ATOM     1   N2  UNL     1       0.271   0.025   0.703  1.00  0.00    -0.162 N   
ATOM     2   C7  UNL     1       0.530   1.240   0.100  1.00  0.00     0.137 A   
ATOM     3   C8  UNL     1      -0.517   2.050   0.472  1.00  0.00     0.127 A   
ATOM     4   N4  UNL     1      -1.346   1.353   1.311  1.00  0.00    -0.131 NA  
ATOM     5   N5  UNL     1      -0.846   0.137   1.469  1.00  0.00    -0.070 NA  
ENDROOT
BRANCH   1   6
ATOM     6   C6  UNL     1       0.995  -1.184   0.532  1.00  0.00     0.146 A   
ATOM     7   C2  UNL     1       1.317  -3.508   1.046  1.00  0.00    -0.046 A   
ATOM     8   C3  UNL     1       2.393  -3.512   0.155  1.00  0.00     0.030 A   
ATOM     9   C21 UNL     1       0.610  -2.319   1.242  1.00  0.00     0.050 A   
ATOM     10  C4  UNL     1       2.711  -2.343  -0.529  1.00  0.00     0.068 A   
ATOM     11  N1  UNL     1       2.033  -1.175  -0.349  1.00  0.00    -0.233 NA  
ATOM     12  C1  UNL     1       0.961  -4.744   1.818  1.00  0.00     0.044 C   
BRANCH  10  13
ATOM     13  C5  UNL     1       3.855  -2.327  -1.518  1.00  0.00     0.212 C   
BRANCH  13  14
ATOM     14  O1  UNL     1       3.841  -1.121  -2.283  1.00  0.00    -0.390 OA  
ATOM     15  H7  UNL     1       3.189  -0.547  -1.833  1.00  0.00     0.211 HD  
ENDBRANCH  13  14
ENDBRANCH  10  13
ENDBRANCH   1   6
BRANCH   3  16
ATOM     16  C9  UNL     1      -0.907   3.421   0.015  1.00  0.00     0.117 C   
BRANCH  16  17
ATOM     17  N3  UNL     1      -2.385   3.447  -0.316  1.00  0.00     0.249 N   
ATOM     18  H10 UNL     1      -2.797   4.354  -0.079  1.00  0.00     0.199 HD  
ATOM     19  H11 UNL     1      -2.830   2.761   0.314  1.00  0.00     0.199 HD  
BRANCH  17  20
ATOM     20  C10 UNL     1      -2.760   3.107  -1.724  1.00  0.00     0.164 C   
BRANCH  20  21
ATOM     21  C11 UNL     1      -2.323   1.737  -2.161  1.00  0.00    -0.002 A   
ATOM     22  C12 UNL     1      -2.983   0.583  -1.674  1.00  0.00     0.012 A   
ATOM     23  C16 UNL     1      -1.205   1.589  -3.001  1.00  0.00     0.045 A   
ATOM     24  C13 UNL     1      -2.520  -0.699  -1.992  1.00  0.00     0.037 A   
ATOM     25  C15 UNL     1      -0.769   0.311  -3.285  1.00  0.00     0.109 A   
ATOM     26  C14 UNL     1      -1.404  -0.801  -2.792  1.00  0.00     0.108 A   
ATOM     27  O2  UNL     1       0.319  -0.000  -4.035  1.00  0.00    -0.316 OA  
ATOM     28  O3  UNL     1      -0.798  -1.955  -3.173  1.00  0.00    -0.316 OA  
ATOM     29  C17 UNL     1       0.293  -1.444  -3.971  1.00  0.00     0.337 C   
ENDBRANCH  20  21
ENDBRANCH  17  20
ENDBRANCH  16  17
BRANCH  16  30
ATOM     30  C18 UNL     1      -0.557   4.518   1.054  1.00  0.00     0.037 C   
ATOM     31  C19 UNL     1      -0.659   5.921   0.440  1.00  0.00     0.014 C   
ATOM     32  C20 UNL     1      -1.383   4.461   2.344  1.00  0.00     0.014 C   
ENDBRANCH  16  30
ENDBRANCH   3  16
TORSDOF 8
