REMARK SMILES CC(C)[C@H]([NH2+]Cc1ccc2c(c1)OCO2)c1cn(-c2ccc(CO)c(F)c2)nn1
REMARK SMILES IDX 16 1 17 2 18 3 28 4 29 5 4 6 2 7 1 8 3 9 5 10 6 13 7 14 8 15
REMARK SMILES IDX 12 16 9 17 11 18 10 19 13 20 15 21 14 22 19 23 20 24 27 25
REMARK SMILES IDX 21 26 25 27 22 28 26 29 23 30 24 31
REMARK H PARENT 5 11 5 12 24 32
ROOT
ATOM     1   C13 UNL     1      -0.686   0.354  -0.206  1.00  0.00     0.127 A   
ATOM     2   C14 UNL     1       0.115   1.026   0.691  1.00  0.00     0.135 A   
ATOM     3   N2  UNL     1       0.522   0.068   1.600  1.00  0.00    -0.181 N   
ATOM     4   N3  UNL     1       0.011  -1.132   1.223  1.00  0.00    -0.071 NA  
ATOM     5   N4  UNL     1      -0.729  -0.967   0.141  1.00  0.00    -0.131 NA  
ENDROOT
BRANCH   1   6
ATOM     6   C4  UNL     1      -1.413   0.815  -1.430  1.00  0.00     0.117 C   
BRANCH   6   7
ATOM     7   C2  UNL     1      -2.832   1.378  -1.153  1.00  0.00     0.037 C   
ATOM     8   C1  UNL     1      -2.780   2.671  -0.330  1.00  0.00     0.014 C   
ATOM     9   C3  UNL     1      -3.785   0.378  -0.488  1.00  0.00     0.014 C   
ENDBRANCH   6   7
BRANCH   6  10
ATOM     10  N1  UNL     1      -1.541  -0.323  -2.414  1.00  0.00     0.249 N   
ATOM     11  H9  UNL     1      -2.295  -0.157  -3.088  1.00  0.00     0.199 HD  
ATOM     12  H10 UNL     1      -1.815  -1.159  -1.874  1.00  0.00     0.199 HD  
BRANCH  10  13
ATOM     13  C5  UNL     1      -0.296  -0.672  -3.154  1.00  0.00     0.164 C   
BRANCH  13  14
ATOM     14  C6  UNL     1      -0.521  -1.882  -4.015  1.00  0.00    -0.002 A   
ATOM     15  C7  UNL     1      -0.317  -3.179  -3.484  1.00  0.00     0.012 A   
ATOM     16  C11 UNL     1      -0.991  -1.739  -5.332  1.00  0.00     0.045 A   
ATOM     17  C8  UNL     1      -0.562  -4.319  -4.257  1.00  0.00     0.037 A   
ATOM     18  C10 UNL     1      -1.225  -2.884  -6.066  1.00  0.00     0.109 A   
ATOM     19  C9  UNL     1      -1.015  -4.137  -5.545  1.00  0.00     0.108 A   
ATOM     20  O1  UNL     1      -1.680  -2.922  -7.345  1.00  0.00    -0.316 OA  
ATOM     21  O2  UNL     1      -1.308  -5.122  -6.432  1.00  0.00    -0.316 OA  
ATOM     22  C12 UNL     1      -1.709  -4.348  -7.583  1.00  0.00     0.337 C   
ENDBRANCH  13  14
ENDBRANCH  10  13
ENDBRANCH   6  10
ENDBRANCH   1   6
BRANCH   3  23
ATOM     23  C15 UNL     1       1.343   0.212   2.745  1.00  0.00     0.060 A   
ATOM     24  C16 UNL     1       1.638  -0.910   3.533  1.00  0.00     0.026 A   
ATOM     25  C21 UNL     1       1.866   1.458   3.105  1.00  0.00     0.065 A   
ATOM     26  C17 UNL     1       2.451  -0.785   4.665  1.00  0.00     0.011 A   
ATOM     27  C20 UNL     1       2.675   1.563   4.237  1.00  0.00     0.130 A   
ATOM     28  C18 UNL     1       2.991   0.456   5.026  1.00  0.00     0.013 A   
ATOM     29  F1  UNL     1       3.156   2.771   4.565  1.00  0.00    -0.207 F   
BRANCH  28  30
ATOM     30  C19 UNL     1       3.853   0.646   6.244  1.00  0.00     0.194 C   
BRANCH  30  31
ATOM     31  O3  UNL     1       4.324  -0.600   6.742  1.00  0.00    -0.392 OA  
ATOM     32  H23 UNL     1       4.890  -0.397   7.508  1.00  0.00     0.211 HD  
ENDBRANCH  30  31
ENDBRANCH  28  30
ENDBRANCH   3  23
TORSDOF 8
