REMARK SMILES COc1ccc(Cn2cc([C@@H]([NH2+]Cc3ccc4c(c3)OCO4)C(C)C)nn2)nc1
REMARK SMILES IDX 8 1 9 2 10 3 26 4 27 5 7 7 6 8 3 9 4 10 29 11 5 12 28 13
REMARK SMILES IDX 2 14 1 15 11 16 12 17 13 20 14 21 15 22 19 23 16 24 18 25
REMARK SMILES IDX 17 26 20 27 22 28 21 29 23 30 24 31 25 32
REMARK H PARENT 9 6 12 18 12 19
ROOT
ATOM     1   N1  UNL     1       2.337   0.752   0.909  1.00  0.00    -0.206 N   
ATOM     2   C7  UNL     1       1.871  -0.088  -0.064  1.00  0.00     0.046 A   
ATOM     3   C8  UNL     1       1.696   0.733  -1.155  1.00  0.00     0.127 A   
ATOM     4   N3  UNL     1       2.094   2.005  -0.830  1.00  0.00    -0.132 NA  
ATOM     5   N4  UNL     1       2.489   2.004   0.433  1.00  0.00    -0.076 NA  
ATOM     6   H8  UNL     1       1.654  -1.129   0.130  1.00  0.00     0.083 HD  
ENDROOT
BRANCH   1   7
ATOM     7   C6  UNL     1       2.587   0.448   2.305  1.00  0.00     0.190 C   
BRANCH   7   8
ATOM     8   C5  UNL     1       1.308   0.573   3.091  1.00  0.00     0.060 A   
ATOM     9   C2  UNL     1      -1.058   0.747   4.513  1.00  0.00     0.093 A   
ATOM     10  C3  UNL     1      -0.071   1.706   4.707  1.00  0.00     0.037 A   
ATOM     11  C21 UNL     1      -0.794  -0.258   3.592  1.00  0.00     0.144 A   
ATOM     12  C4  UNL     1       1.127   1.620   3.992  1.00  0.00     0.028 A   
ATOM     13  N5  UNL     1       0.351  -0.365   2.872  1.00  0.00    -0.257 NA  
BRANCH   9  14
ATOM     14  O1  UNL     1      -2.273   0.692   5.128  1.00  0.00    -0.348 OA  
ATOM     15  C1  UNL     1      -2.519   1.649   6.153  1.00  0.00     0.203 C   
ENDBRANCH   9  14
ENDBRANCH   7   8
ENDBRANCH   1   7
BRANCH   3  16
ATOM     16  C9  UNL     1       1.060   0.464  -2.476  1.00  0.00     0.117 C   
BRANCH  16  17
ATOM     17  N2  UNL     1       0.138   1.604  -2.860  1.00  0.00     0.249 N   
ATOM     18  H10 UNL     1       0.707   2.460  -2.846  1.00  0.00     0.199 HD  
ATOM     19  H11 UNL     1      -0.202   1.471  -3.816  1.00  0.00     0.199 HD  
BRANCH  17  20
ATOM     20  C10 UNL     1      -1.025   1.853  -1.951  1.00  0.00     0.164 C   
BRANCH  20  21
ATOM     21  C11 UNL     1      -1.955   0.679  -1.828  1.00  0.00    -0.002 A   
ATOM     22  C12 UNL     1      -2.000  -0.069  -0.626  1.00  0.00     0.012 A   
ATOM     23  C16 UNL     1      -2.764   0.296  -2.912  1.00  0.00     0.045 A   
ATOM     24  C13 UNL     1      -2.831  -1.187  -0.505  1.00  0.00     0.037 A   
ATOM     25  C15 UNL     1      -3.572  -0.811  -2.758  1.00  0.00     0.109 A   
ATOM     26  C14 UNL     1      -3.605  -1.533  -1.590  1.00  0.00     0.108 A   
ATOM     27  O2  UNL     1      -4.406  -1.317  -3.704  1.00  0.00    -0.316 OA  
ATOM     28  O3  UNL     1      -4.464  -2.583  -1.653  1.00  0.00    -0.316 OA  
ATOM     29  C17 UNL     1      -4.994  -2.427  -2.987  1.00  0.00     0.337 C   
ENDBRANCH  20  21
ENDBRANCH  17  20
ENDBRANCH  16  17
BRANCH  16  30
ATOM     30  C18 UNL     1       2.063   0.226  -3.635  1.00  0.00     0.037 C   
ATOM     31  C19 UNL     1       2.885  -1.048  -3.408  1.00  0.00     0.014 C   
ATOM     32  C20 UNL     1       3.004   1.402  -3.919  1.00  0.00     0.014 C   
ENDBRANCH  16  30
ENDBRANCH   3  16
TORSDOF 8
