REMARK SMILES Cc1ccc(Cn2cc([C@@H]([NH2+]Cc3ccc4c(c3)OCO4)C(C)(C)C)nn2)c(Cl)n1
REMARK SMILES IDX 7 1 8 2 9 3 26 4 27 5 6 7 5 8 2 9 3 10 30 11 4 12 28 13 1 14
REMARK SMILES IDX 29 15 10 16 11 17 12 20 13 21 14 22 18 23 15 24 17 25 16 26
REMARK SMILES IDX 19 27 21 28 20 29 22 30 23 31 24 32 25 33
REMARK H PARENT 8 6 11 18 11 19
ROOT
ATOM     1   N1  UNL     1      -0.843   1.448  -1.805  1.00  0.00    -0.208 N   
ATOM     2   C7  UNL     1       0.159   1.778  -0.934  1.00  0.00     0.046 A   
ATOM     3   C8  UNL     1       0.680   0.563  -0.550  1.00  0.00     0.127 A   
ATOM     4   N3  UNL     1      -0.011  -0.443  -1.185  1.00  0.00    -0.132 NA  
ATOM     5   N4  UNL     1      -0.933   0.111  -1.953  1.00  0.00    -0.076 NA  
ATOM     6   H8  UNL     1       0.395   2.801  -0.672  1.00  0.00     0.083 HD  
ENDROOT
BRANCH   1   7
ATOM     7   C6  UNL     1      -1.691   2.332  -2.586  1.00  0.00     0.172 C   
BRANCH   7   8
ATOM     8   C5  UNL     1      -2.918   2.742  -1.826  1.00  0.00     0.009 A   
ATOM     9   C2  UNL     1      -5.182   3.523  -0.440  1.00  0.00     0.039 A   
ATOM     10  C3  UNL     1      -5.202   2.323  -1.143  1.00  0.00     0.024 A   
ATOM     11  N5  UNL     1      -4.085   4.312  -0.390  1.00  0.00    -0.241 NA  
ATOM     12  C4  UNL     1      -4.060   1.931  -1.837  1.00  0.00     0.010 A   
ATOM     13  C22 UNL     1      -2.995   3.910  -1.078  1.00  0.00     0.134 A   
ATOM     14  C1  UNL     1      -6.395   3.980   0.317  1.00  0.00     0.067 C   
ATOM     15  CL1 UNL     1      -1.680   5.007  -0.918  1.00  0.00    -0.062 Cl  
ENDBRANCH   7   8
ENDBRANCH   1   7
BRANCH   3  16
ATOM     16  C9  UNL     1       1.740   0.196   0.448  1.00  0.00     0.120 C   
BRANCH  16  17
ATOM     17  N2  UNL     1       1.332  -1.119   1.094  1.00  0.00     0.250 N   
ATOM     18  H10 UNL     1       2.119  -1.770   1.156  1.00  0.00     0.199 HD  
ATOM     19  H11 UNL     1       0.673  -1.559   0.430  1.00  0.00     0.199 HD  
BRANCH  17  20
ATOM     20  C10 UNL     1       0.659  -1.029   2.419  1.00  0.00     0.164 C   
BRANCH  20  21
ATOM     21  C11 UNL     1      -0.610  -0.224   2.410  1.00  0.00    -0.002 A   
ATOM     22  C12 UNL     1      -1.779  -0.731   1.793  1.00  0.00     0.012 A   
ATOM     23  C16 UNL     1      -0.632   1.062   2.979  1.00  0.00     0.045 A   
ATOM     24  C13 UNL     1      -2.951   0.030   1.739  1.00  0.00     0.037 A   
ATOM     25  C15 UNL     1      -1.801   1.790   2.900  1.00  0.00     0.109 A   
ATOM     26  C14 UNL     1      -2.929   1.288   2.300  1.00  0.00     0.108 A   
ATOM     27  O1  UNL     1      -1.981   3.049   3.379  1.00  0.00    -0.316 OA  
ATOM     28  O2  UNL     1      -3.968   2.164   2.337  1.00  0.00    -0.316 OA  
ATOM     29  C17 UNL     1      -3.353   3.296   2.993  1.00  0.00     0.337 C   
ENDBRANCH  20  21
ENDBRANCH  17  20
ENDBRANCH  16  17
BRANCH  16  30
ATOM     30  C18 UNL     1       3.186   0.096  -0.147  1.00  0.00     0.010 C   
ATOM     31  C19 UNL     1       4.205  -0.224   0.971  1.00  0.00     0.017 C   
ATOM     32  C20 UNL     1       3.599   1.456  -0.756  1.00  0.00     0.017 C   
ATOM     33  C21 UNL     1       3.307  -0.982  -1.242  1.00  0.00     0.017 C   
ENDBRANCH  16  30
ENDBRANCH   3  16
TORSDOF 7
