REMARK SMILES c1cc2c(cc1C[NH2+][C@H](c1cn(Cc3n[nH]c4c3CCCN4)nn1)C1CCCC1)OCO2
REMARK SMILES IDX 10 1 11 2 12 3 23 4 24 5 9 7 8 8 7 11 6 12 1 13 2 14 3 15
REMARK SMILES IDX 5 16 4 17 32 18 30 19 31 20 25 21 26 22 29 23 27 24 28 25
REMARK SMILES IDX 13 26 14 27 15 28 18 29 16 30 17 31 19 32 22 33 20 34 21 35
REMARK H PARENT 11 6 8 9 8 10 16 36 22 37
ROOT
ATOM     1   C9  UNL     1      -1.469  -1.367  -0.156  1.00  0.00     0.127 A   
ATOM     2   C10 UNL     1      -0.973  -2.197  -1.134  1.00  0.00     0.046 A   
ATOM     3   N2  UNL     1      -1.053  -1.444  -2.276  1.00  0.00    -0.206 N   
ATOM     4   N6  UNL     1      -1.627  -0.250  -2.023  1.00  0.00    -0.076 NA  
ATOM     5   N7  UNL     1      -1.872  -0.186  -0.726  1.00  0.00    -0.132 NA  
ATOM     6   H9  UNL     1      -0.511  -3.176  -1.127  1.00  0.00     0.083 HD  
ENDROOT
BRANCH   1   7
ATOM     7   C8  UNL     1      -1.478  -1.491   1.332  1.00  0.00     0.117 C   
BRANCH   7   8
ATOM     8   N1  UNL     1      -0.934  -0.213   1.916  1.00  0.00     0.249 N   
ATOM     9   H6  UNL     1      -1.335   0.549   1.345  1.00  0.00     0.199 HD  
ATOM     10  H7  UNL     1      -1.257  -0.044   2.873  1.00  0.00     0.199 HD  
BRANCH   8  11
ATOM     11  C7  UNL     1       0.548  -0.070   1.847  1.00  0.00     0.164 C   
BRANCH  11  12
ATOM     12  C6  UNL     1       0.948   1.372   1.976  1.00  0.00    -0.002 A   
ATOM     13  C1  UNL     1       1.216   1.940   3.243  1.00  0.00     0.012 A   
ATOM     14  C2  UNL     1       1.545   3.295   3.365  1.00  0.00     0.037 A   
ATOM     15  C3  UNL     1       1.593   4.053   2.215  1.00  0.00     0.108 A   
ATOM     16  C5  UNL     1       1.002   2.181   0.826  1.00  0.00     0.045 A   
ATOM     17  C4  UNL     1       1.331   3.511   0.981  1.00  0.00     0.109 A   
ATOM     18  O2  UNL     1       1.891   5.377   2.147  1.00  0.00    -0.316 OA  
ATOM     19  O1  UNL     1       1.431   4.424  -0.021  1.00  0.00    -0.316 OA  
ATOM     20  C23 UNL     1       1.797   5.608   0.725  1.00  0.00     0.337 C   
ENDBRANCH  11  12
ENDBRANCH   8  11
ENDBRANCH   7   8
BRANCH   7  21
ATOM     21  C18 UNL     1      -2.882  -1.790   1.891  1.00  0.00     0.043 C   
ATOM     22  C19 UNL     1      -3.931  -0.679   1.716  1.00  0.00     0.010 C   
ATOM     23  C22 UNL     1      -2.893  -2.120   3.398  1.00  0.00     0.010 C   
ATOM     24  C20 UNL     1      -4.912  -0.923   2.850  1.00  0.00     0.001 C   
ATOM     25  C21 UNL     1      -3.999  -1.267   4.014  1.00  0.00     0.001 C   
ENDBRANCH   7  21
ENDBRANCH   1   7
BRANCH   3  26
ATOM     26  C11 UNL     1      -0.497  -1.738  -3.584  1.00  0.00     0.192 C   
BRANCH  26  27
ATOM     27  C12 UNL     1       0.975  -1.498  -3.550  1.00  0.00     0.084 A   
ATOM     28  N3  UNL     1       1.827  -2.515  -3.315  1.00  0.00    -0.186 NA  
ATOM     29  C14 UNL     1       1.664  -0.270  -3.695  1.00  0.00     0.014 A   
ATOM     30  N4  UNL     1       3.050  -1.938  -3.367  1.00  0.00    -0.225 N   
ATOM     31  C13 UNL     1       2.988  -0.594  -3.560  1.00  0.00     0.107 A   
ATOM     32  C15 UNL     1       1.228   1.127  -3.949  1.00  0.00     0.042 C   
ATOM     33  N5  UNL     1       4.033   0.262  -3.594  1.00  0.00    -0.331 N   
ATOM     34  C16 UNL     1       2.359   2.103  -3.567  1.00  0.00     0.024 C   
ATOM     35  C17 UNL     1       3.732   1.619  -4.077  1.00  0.00     0.103 C   
ATOM     36  H12 UNL     1       3.873  -2.516  -3.241  1.00  0.00     0.177 HD  
ATOM     37  H19 UNL     1       4.972  -0.066  -3.819  1.00  0.00     0.148 HD  
ENDBRANCH  26  27
ENDBRANCH   3  26
TORSDOF 7
