REMARK SMILES CCc1cccc([C@@H](CO)n2cc([C@H](CC(C)C)[NH2+]Cc3ccc4c(c3)OCO4)nn2)c1
REMARK SMILES IDX 11 1 12 2 13 3 30 4 31 5 8 7 7 8 3 9 4 10 32 11 5 12 6 13
REMARK SMILES IDX 2 14 1 15 9 16 10 17 14 19 15 20 16 21 17 22 18 23 19 24
REMARK SMILES IDX 20 27 21 28 22 29 26 30 23 31 25 32 24 33 27 34 29 35 28 36
REMARK H PARENT 12 6 10 18 19 25 19 26
ROOT
ATOM     1   N1  UNL     1       0.344  -1.623   2.049  1.00  0.00    -0.202 N   
ATOM     2   C10 UNL     1      -0.298  -0.728   1.235  1.00  0.00     0.046 A   
ATOM     3   C11 UNL     1      -1.414  -1.403   0.801  1.00  0.00     0.127 A   
ATOM     4   N3  UNL     1      -1.418  -2.661   1.348  1.00  0.00    -0.132 NA  
ATOM     5   N4  UNL     1      -0.332  -2.791   2.092  1.00  0.00    -0.075 NA  
ATOM     6   H13 UNL     1       0.077   0.270   1.076  1.00  0.00     0.083 HD  
ENDROOT
BRANCH   1   7
ATOM     7   C8  UNL     1       1.580  -1.452   2.814  1.00  0.00     0.155 C   
BRANCH   7   8
ATOM     8   C7  UNL     1       2.690  -0.895   1.927  1.00  0.00    -0.023 A   
ATOM     9   C3  UNL     1       4.090   0.933   1.095  1.00  0.00    -0.048 A   
ATOM     10  C4  UNL     1       4.720   0.047   0.217  1.00  0.00     0.004 A   
ATOM     11  C25 UNL     1       3.082   0.454   1.948  1.00  0.00     0.009 A   
ATOM     12  C5  UNL     1       4.343  -1.292   0.178  1.00  0.00     0.001 A   
ATOM     13  C6  UNL     1       3.335  -1.760   1.022  1.00  0.00     0.006 A   
BRANCH   9  14
ATOM     14  C2  UNL     1       4.511   2.382   1.151  1.00  0.00     0.032 C   
ATOM     15  C1  UNL     1       5.709   2.585   2.067  1.00  0.00     0.009 C   
ENDBRANCH   9  14
ENDBRANCH   7   8
BRANCH   7  16
ATOM     16  C9  UNL     1       1.299  -0.723   4.148  1.00  0.00     0.185 C   
BRANCH  16  17
ATOM     17  O1  UNL     1       0.679   0.557   3.968  1.00  0.00    -0.394 OA  
ATOM     18  H12 UNL     1       0.570   0.952   4.854  1.00  0.00     0.210 HD  
ENDBRANCH  16  17
ENDBRANCH   7  16
ENDBRANCH   1   7
BRANCH   3  19
ATOM     19  C12 UNL     1      -2.502  -0.998  -0.135  1.00  0.00     0.114 C   
BRANCH  19  20
ATOM     20  C13 UNL     1      -3.700  -0.344   0.584  1.00  0.00     0.064 C   
BRANCH  20  21
ATOM     21  C14 UNL     1      -3.396   1.004   1.277  1.00  0.00    -0.012 C   
ATOM     22  C15 UNL     1      -4.653   1.510   1.994  1.00  0.00     0.007 C   
ATOM     23  C16 UNL     1      -2.898   2.067   0.298  1.00  0.00     0.007 C   
ENDBRANCH  20  21
ENDBRANCH  19  20
BRANCH  19  24
ATOM     24  N2  UNL     1      -3.047  -2.213  -0.866  1.00  0.00     0.249 N   
ATOM     25  H24 UNL     1      -3.910  -1.976  -1.359  1.00  0.00     0.199 HD  
ATOM     26  H25 UNL     1      -3.277  -2.904  -0.136  1.00  0.00     0.199 HD  
BRANCH  24  27
ATOM     27  C17 UNL     1      -2.109  -2.882  -1.819  1.00  0.00     0.164 C   
BRANCH  27  28
ATOM     28  C18 UNL     1      -1.763  -2.023  -3.004  1.00  0.00    -0.002 A   
ATOM     29  C19 UNL     1      -2.709  -1.802  -4.037  1.00  0.00     0.012 A   
ATOM     30  C23 UNL     1      -0.501  -1.401  -3.075  1.00  0.00     0.045 A   
ATOM     31  C20 UNL     1      -2.406  -0.968  -5.117  1.00  0.00     0.037 A   
ATOM     32  C22 UNL     1      -0.235  -0.589  -4.156  1.00  0.00     0.109 A   
ATOM     33  C21 UNL     1      -1.161  -0.375  -5.148  1.00  0.00     0.108 A   
ATOM     34  O2  UNL     1       0.922   0.090  -4.372  1.00  0.00    -0.316 OA  
ATOM     35  O3  UNL     1      -0.701   0.465  -6.113  1.00  0.00    -0.316 OA  
ATOM     36  C24 UNL     1       0.638   0.727  -5.639  1.00  0.00     0.337 C   
ENDBRANCH  27  28
ENDBRANCH  24  27
ENDBRANCH  19  24
ENDBRANCH   3  19
TORSDOF 11
