REMARK SMILES CCc1cccc([C@H](CO)n2cc([C@H](CC(C)C)[NH2+]Cc3ccc4c(c3)OCO4)nn2)c1
REMARK SMILES IDX 11 1 12 2 13 3 30 4 31 5 8 7 7 8 3 9 4 10 32 11 5 12 6 13
REMARK SMILES IDX 2 14 1 15 9 16 10 17 14 19 15 20 16 21 17 22 18 23 19 24
REMARK SMILES IDX 20 27 21 28 22 29 26 30 23 31 25 32 24 33 27 34 29 35 28 36
REMARK H PARENT 12 6 10 18 19 25 19 26
ROOT
ATOM     1   N1  UNL     1       0.137   0.904   2.425  1.00  0.00    -0.202 N   
ATOM     2   C10 UNL     1      -1.168   0.894   2.001  1.00  0.00     0.046 A   
ATOM     3   C11 UNL     1      -1.321  -0.340   1.410  1.00  0.00     0.127 A   
ATOM     4   N3  UNL     1      -0.123  -1.005   1.443  1.00  0.00    -0.132 NA  
ATOM     5   N4  UNL     1       0.765  -0.230   2.044  1.00  0.00    -0.075 NA  
ATOM     6   H13 UNL     1      -1.834   1.727   2.175  1.00  0.00     0.083 HD  
ENDROOT
BRANCH   1   7
ATOM     7   C8  UNL     1       0.827   1.973   3.149  1.00  0.00     0.155 C   
BRANCH   7   8
ATOM     8   C7  UNL     1       1.512   2.912   2.167  1.00  0.00    -0.023 A   
ATOM     9   C3  UNL     1       3.268   3.386   0.533  1.00  0.00    -0.048 A   
ATOM     10  C4  UNL     1       2.764   4.683   0.383  1.00  0.00     0.004 A   
ATOM     11  C25 UNL     1       2.630   2.505   1.419  1.00  0.00     0.009 A   
ATOM     12  C5  UNL     1       1.653   5.098   1.114  1.00  0.00     0.001 A   
ATOM     13  C6  UNL     1       1.031   4.221   2.003  1.00  0.00     0.006 A   
BRANCH   9  14
ATOM     14  C2  UNL     1       4.472   2.936  -0.256  1.00  0.00     0.032 C   
ATOM     15  C1  UNL     1       4.086   2.407  -1.628  1.00  0.00     0.009 C   
ENDBRANCH   9  14
ENDBRANCH   7   8
BRANCH   7  16
ATOM     16  C9  UNL     1       1.778   1.447   4.239  1.00  0.00     0.185 C   
BRANCH  16  17
ATOM     17  O1  UNL     1       1.030   0.915   5.337  1.00  0.00    -0.394 OA  
ATOM     18  H12 UNL     1       1.679   0.572   5.979  1.00  0.00     0.210 HD  
ENDBRANCH  16  17
ENDBRANCH   7  16
ENDBRANCH   1   7
BRANCH   3  19
ATOM     19  C12 UNL     1      -2.500  -0.980   0.754  1.00  0.00     0.114 C   
BRANCH  19  20
ATOM     20  C13 UNL     1      -3.388  -1.748   1.755  1.00  0.00     0.064 C   
BRANCH  20  21
ATOM     21  C14 UNL     1      -4.102  -0.875   2.811  1.00  0.00    -0.012 C   
ATOM     22  C15 UNL     1      -4.885  -1.769   3.777  1.00  0.00     0.007 C   
ATOM     23  C16 UNL     1      -5.045   0.150   2.177  1.00  0.00     0.007 C   
ENDBRANCH  20  21
ENDBRANCH  19  20
BRANCH  19  24
ATOM     24  N2  UNL     1      -2.041  -1.984  -0.278  1.00  0.00     0.249 N   
ATOM     25  H24 UNL     1      -1.321  -2.567   0.173  1.00  0.00     0.199 HD  
ATOM     26  H25 UNL     1      -2.802  -2.614  -0.550  1.00  0.00     0.199 HD  
BRANCH  24  27
ATOM     27  C17 UNL     1      -1.429  -1.405  -1.509  1.00  0.00     0.164 C   
BRANCH  27  28
ATOM     28  C18 UNL     1      -1.049  -2.502  -2.463  1.00  0.00    -0.002 A   
ATOM     29  C19 UNL     1       0.184  -3.180  -2.311  1.00  0.00     0.012 A   
ATOM     30  C23 UNL     1      -1.942  -2.904  -3.472  1.00  0.00     0.045 A   
ATOM     31  C20 UNL     1       0.529  -4.241  -3.155  1.00  0.00     0.037 A   
ATOM     32  C22 UNL     1      -1.570  -3.955  -4.286  1.00  0.00     0.109 A   
ATOM     33  C21 UNL     1      -0.371  -4.605  -4.132  1.00  0.00     0.108 A   
ATOM     34  O2  UNL     1      -2.314  -4.468  -5.300  1.00  0.00    -0.316 OA  
ATOM     35  O3  UNL     1      -0.207  -5.610  -5.031  1.00  0.00    -0.316 OA  
ATOM     36  C24 UNL     1      -1.433  -5.507  -5.786  1.00  0.00     0.337 C   
ENDBRANCH  27  28
ENDBRANCH  24  27
ENDBRANCH  19  24
ENDBRANCH   3  19
TORSDOF 11
