REMARK SMILES Cc1cccc([C@H](CO)n2cc([C@H](CC(C)C)[NH2+]Cc3ccc4c(c3)OCO4)nn2)n1
REMARK SMILES IDX 10 1 11 2 12 3 29 4 30 5 7 7 6 8 2 9 3 10 31 11 4 12 5 13
REMARK SMILES IDX 1 14 8 15 9 16 13 18 14 19 15 20 16 21 17 22 18 23 19 26
REMARK SMILES IDX 20 27 21 28 25 29 22 30 24 31 23 32 26 33 28 34 27 35
REMARK H PARENT 11 6 9 17 18 24 18 25
ROOT
ATOM     1   N1  UNL     1      -0.339  -2.316   0.928  1.00  0.00    -0.201 N   
ATOM     2   C9  UNL     1       0.219  -1.081   1.133  1.00  0.00     0.046 A   
ATOM     3   C10 UNL     1      -0.787  -0.200   0.811  1.00  0.00     0.127 A   
ATOM     4   N3  UNL     1      -1.898  -0.905   0.423  1.00  0.00    -0.132 NA  
ATOM     5   N4  UNL     1      -1.609  -2.195   0.481  1.00  0.00    -0.075 NA  
ATOM     6   H11 UNL     1       1.241  -0.960   1.466  1.00  0.00     0.083 HD  
ENDROOT
BRANCH   1   7
ATOM     7   C7  UNL     1       0.295  -3.619   1.104  1.00  0.00     0.174 C   
BRANCH   7   8
ATOM     8   C6  UNL     1       0.658  -4.189  -0.252  1.00  0.00     0.066 A   
ATOM     9   C2  UNL     1       2.342  -4.543  -1.828  1.00  0.00     0.038 A   
ATOM     10  C3  UNL     1       1.461  -5.192  -2.684  1.00  0.00     0.023 A   
ATOM     11  N5  UNL     1       1.955  -4.037  -0.632  1.00  0.00    -0.256 NA  
ATOM     12  C4  UNL     1       0.132  -5.325  -2.299  1.00  0.00     0.004 A   
ATOM     13  C5  UNL     1      -0.279  -4.818  -1.071  1.00  0.00     0.026 A   
ATOM     14  C1  UNL     1       3.786  -4.393  -2.207  1.00  0.00     0.067 C   
ENDBRANCH   7   8
BRANCH   7  15
ATOM     15  C8  UNL     1      -0.536  -4.565   1.984  1.00  0.00     0.187 C   
BRANCH  15  16
ATOM     16  O1  UNL     1      -0.536  -4.110   3.340  1.00  0.00    -0.394 OA  
ATOM     17  H10 UNL     1      -1.038  -4.763   3.862  1.00  0.00     0.210 HD  
ENDBRANCH  15  16
ENDBRANCH   7  15
ENDBRANCH   1   7
BRANCH   3  18
ATOM     18  C11 UNL     1      -0.816   1.293   0.786  1.00  0.00     0.114 C   
BRANCH  18  19
ATOM     19  C12 UNL     1      -1.315   1.850   2.135  1.00  0.00     0.064 C   
BRANCH  19  20
ATOM     20  C13 UNL     1      -1.336   3.387   2.280  1.00  0.00    -0.012 C   
ATOM     21  C14 UNL     1      -1.814   3.761   3.688  1.00  0.00     0.007 C   
ATOM     22  C15 UNL     1       0.028   4.025   2.013  1.00  0.00     0.007 C   
ENDBRANCH  19  20
ENDBRANCH  18  19
BRANCH  18  23
ATOM     23  N2  UNL     1      -1.730   1.772  -0.317  1.00  0.00     0.249 N   
ATOM     24  H22 UNL     1      -2.606   1.241  -0.209  1.00  0.00     0.199 HD  
ATOM     25  H23 UNL     1      -1.956   2.762  -0.202  1.00  0.00     0.199 HD  
BRANCH  23  26
ATOM     26  C16 UNL     1      -1.243   1.550  -1.712  1.00  0.00     0.164 C   
BRANCH  26  27
ATOM     27  C17 UNL     1      -0.089   2.446  -2.069  1.00  0.00    -0.002 A   
ATOM     28  C18 UNL     1       1.222   1.921  -2.163  1.00  0.00     0.012 A   
ATOM     29  C22 UNL     1      -0.300   3.821  -2.277  1.00  0.00     0.045 A   
ATOM     30  C19 UNL     1       2.311   2.751  -2.455  1.00  0.00     0.037 A   
ATOM     31  C21 UNL     1       0.794   4.611  -2.562  1.00  0.00     0.109 A   
ATOM     32  C20 UNL     1       2.063   4.092  -2.647  1.00  0.00     0.108 A   
ATOM     33  O2  UNL     1       0.764   5.952  -2.782  1.00  0.00    -0.316 OA  
ATOM     34  O3  UNL     1       2.992   5.042  -2.931  1.00  0.00    -0.316 OA  
ATOM     35  C23 UNL     1       2.162   6.218  -3.041  1.00  0.00     0.337 C   
ENDBRANCH  26  27
ENDBRANCH  23  26
ENDBRANCH  18  23
ENDBRANCH   3  18
TORSDOF 10
