REMARK SMILES Cc1cccc([C@@H](CO)n2cc([C@H](CC(C)C)[NH2+]Cc3ccc4c(c3)OCO4)nn2)n1
REMARK SMILES IDX 10 1 11 2 12 3 29 4 30 5 7 7 6 8 2 9 3 10 31 11 4 12 5 13
REMARK SMILES IDX 1 14 8 15 9 16 13 18 14 19 15 20 16 21 17 22 18 23 19 26
REMARK SMILES IDX 20 27 21 28 25 29 22 30 24 31 23 32 26 33 28 34 27 35
REMARK H PARENT 11 6 9 17 18 24 18 25
ROOT
ATOM     1   N1  UNL     1      -0.591  -1.298   0.970  1.00  0.00    -0.201 N   
ATOM     2   C9  UNL     1      -0.601  -0.391  -0.056  1.00  0.00     0.046 A   
ATOM     3   C10 UNL     1       0.399  -0.823  -0.895  1.00  0.00     0.127 A   
ATOM     4   N3  UNL     1       0.993  -1.936  -0.354  1.00  0.00    -0.132 NA  
ATOM     5   N4  UNL     1       0.386  -2.215   0.786  1.00  0.00    -0.075 NA  
ATOM     6   H11 UNL     1      -1.303   0.432  -0.091  1.00  0.00     0.083 HD  
ENDROOT
BRANCH   1   7
ATOM     7   C7  UNL     1      -1.470  -1.391   2.130  1.00  0.00     0.174 C   
BRANCH   7   8
ATOM     8   C6  UNL     1      -1.395  -0.120   2.957  1.00  0.00     0.066 A   
ATOM     9   C2  UNL     1      -2.319   1.944   3.531  1.00  0.00     0.038 A   
ATOM     10  C3  UNL     1      -1.306   2.186   4.451  1.00  0.00     0.023 A   
ATOM     11  N5  UNL     1      -2.370   0.814   2.781  1.00  0.00    -0.256 NA  
ATOM     12  C4  UNL     1      -0.304   1.236   4.606  1.00  0.00     0.004 A   
ATOM     13  C5  UNL     1      -0.342   0.070   3.849  1.00  0.00     0.026 A   
ATOM     14  C1  UNL     1      -3.418   2.948   3.344  1.00  0.00     0.067 C   
ENDBRANCH   7   8
BRANCH   7  15
ATOM     15  C8  UNL     1      -2.901  -1.789   1.726  1.00  0.00     0.187 C   
BRANCH  15  16
ATOM     16  O1  UNL     1      -3.554  -0.812   0.909  1.00  0.00    -0.394 OA  
ATOM     17  H10 UNL     1      -3.579   0.010   1.450  1.00  0.00     0.210 HD  
ENDBRANCH  15  16
ENDBRANCH   7  15
ENDBRANCH   1   7
BRANCH   3  18
ATOM     18  C11 UNL     1       0.907  -0.279  -2.186  1.00  0.00     0.114 C   
BRANCH  18  19
ATOM     19  C12 UNL     1       0.092  -0.748  -3.409  1.00  0.00     0.064 C   
BRANCH  19  20
ATOM     20  C13 UNL     1      -0.203  -2.259  -3.567  1.00  0.00    -0.012 C   
ATOM     21  C14 UNL     1       1.040  -3.116  -3.799  1.00  0.00     0.007 C   
ATOM     22  C15 UNL     1      -1.176  -2.461  -4.737  1.00  0.00     0.007 C   
ENDBRANCH  19  20
ENDBRANCH  18  19
BRANCH  18  23
ATOM     23  N2  UNL     1       2.364  -0.630  -2.366  1.00  0.00     0.249 N   
ATOM     24  H22 UNL     1       2.550  -0.927  -3.328  1.00  0.00     0.199 HD  
ATOM     25  H23 UNL     1       2.525  -1.458  -1.771  1.00  0.00     0.199 HD  
BRANCH  23  26
ATOM     26  C16 UNL     1       3.354   0.414  -1.979  1.00  0.00     0.164 C   
BRANCH  26  27
ATOM     27  C17 UNL     1       3.253   0.870  -0.550  1.00  0.00    -0.002 A   
ATOM     28  C18 UNL     1       3.620   0.007   0.512  1.00  0.00     0.012 A   
ATOM     29  C22 UNL     1       2.766   2.155  -0.253  1.00  0.00     0.045 A   
ATOM     30  C19 UNL     1       3.493   0.410   1.847  1.00  0.00     0.037 A   
ATOM     31  C21 UNL     1       2.658   2.523   1.072  1.00  0.00     0.109 A   
ATOM     32  C20 UNL     1       3.008   1.675   2.094  1.00  0.00     0.108 A   
ATOM     33  O2  UNL     1       2.208   3.724   1.522  1.00  0.00    -0.316 OA  
ATOM     34  O3  UNL     1       2.822   2.234   3.318  1.00  0.00    -0.316 OA  
ATOM     35  C23 UNL     1       2.357   3.551   2.950  1.00  0.00     0.337 C   
ENDBRANCH  26  27
ENDBRANCH  23  26
ENDBRANCH  18  23
ENDBRANCH   3  18
TORSDOF 10
