REMARK SMILES Cc1cc(-n2cc([C@H](CC(C)C)[NH2+]Cc3ccc4c(c3)OCO4)nn2)cc(=O)o1
REMARK SMILES IDX 8 1 7 2 5 3 6 4 25 5 24 6 4 7 2 8 3 9 29 10 27 11 26 12 1 13
REMARK SMILES IDX 28 14 9 15 10 16 11 17 12 18 13 19 14 22 15 23 16 24 20 25
REMARK SMILES IDX 17 26 19 27 18 28 21 29 23 30 22 31
REMARK H PARENT 13 20 13 21
ROOT
ATOM     1   C7  UNL     1      -0.816  -1.115   0.230  1.00  0.00     0.114 C   
ENDROOT
BRANCH   1   2
ATOM     2   C6  UNL     1      -0.877   0.339   0.572  1.00  0.00     0.127 A   
ATOM     3   N1  UNL     1      -1.355   2.485   0.879  1.00  0.00    -0.180 N   
ATOM     4   C5  UNL     1      -1.857   1.283   0.372  1.00  0.00     0.135 A   
ATOM     5   N4  UNL     1      -0.081   2.219   1.310  1.00  0.00    -0.071 NA  
ATOM     6   N3  UNL     1       0.199   0.938   1.150  1.00  0.00    -0.131 NA  
BRANCH   3   7
ATOM     7   C4  UNL     1      -2.008   3.740   0.927  1.00  0.00     0.066 A   
ATOM     8   C2  UNL     1      -1.895   6.088   1.548  1.00  0.00     0.062 A   
ATOM     9   C3  UNL     1      -1.311   4.883   1.495  1.00  0.00     0.055 A   
ATOM     10  O4  UNL     1      -3.204   6.296   1.061  1.00  0.00    -0.279 OA  
ATOM     11  C21 UNL     1      -3.913   5.264   0.527  1.00  0.00     0.292 A   
ATOM     12  C20 UNL     1      -3.257   3.945   0.474  1.00  0.00     0.106 A   
ATOM     13  C1  UNL     1      -1.254   7.312   2.119  1.00  0.00     0.073 C   
ATOM     14  O3  UNL     1      -5.051   5.389   0.091  1.00  0.00    -0.261 OA  
ENDBRANCH   3   7
ENDBRANCH   1   2
BRANCH   1  15
ATOM     15  C8  UNL     1      -1.244  -2.020   1.402  1.00  0.00     0.064 C   
BRANCH  15  16
ATOM     16  C9  UNL     1      -2.711  -1.866   1.857  1.00  0.00    -0.012 C   
ATOM     17  C10 UNL     1      -2.977  -2.776   3.061  1.00  0.00     0.007 C   
ATOM     18  C11 UNL     1      -3.705  -2.187   0.741  1.00  0.00     0.007 C   
ENDBRANCH  15  16
ENDBRANCH   1  15
BRANCH   1  19
ATOM     19  N2  UNL     1       0.602  -1.503  -0.122  1.00  0.00     0.249 N   
ATOM     20  H16 UNL     1       0.729  -2.520  -0.090  1.00  0.00     0.199 HD  
ATOM     21  H17 UNL     1       1.213  -1.114   0.612  1.00  0.00     0.199 HD  
BRANCH  19  22
ATOM     22  C12 UNL     1       1.101  -0.998  -1.432  1.00  0.00     0.164 C   
BRANCH  22  23
ATOM     23  C13 UNL     1       2.540  -1.380  -1.624  1.00  0.00    -0.002 A   
ATOM     24  C14 UNL     1       3.568  -0.561  -1.099  1.00  0.00     0.012 A   
ATOM     25  C18 UNL     1       2.875  -2.579  -2.277  1.00  0.00     0.045 A   
ATOM     26  C15 UNL     1       4.914  -0.922  -1.230  1.00  0.00     0.037 A   
ATOM     27  C17 UNL     1       4.211  -2.904  -2.391  1.00  0.00     0.109 A   
ATOM     28  C16 UNL     1       5.201  -2.101  -1.882  1.00  0.00     0.108 A   
ATOM     29  O1  UNL     1       4.704  -4.019  -2.992  1.00  0.00    -0.316 OA  
ATOM     30  O2  UNL     1       6.442  -2.608  -2.102  1.00  0.00    -0.316 OA  
ATOM     31  C19 UNL     1       6.126  -3.813  -2.830  1.00  0.00     0.337 C   
ENDBRANCH  22  23
ENDBRANCH  19  22
ENDBRANCH   1  19
TORSDOF 7
