REMARK SMILES Fc1ccccc1CCn1cc([C@@H]([NH2+]Cc2ccc3c(c2)OCO3)C2CCCC2)nn1
REMARK SMILES IDX 10 1 11 2 12 3 30 4 31 5 9 7 8 8 7 9 2 10 3 11 4 12 6 13
REMARK SMILES IDX 5 14 1 15 13 16 14 17 15 20 16 21 17 22 21 23 18 24 20 25
REMARK SMILES IDX 19 26 22 27 24 28 23 29 25 30 26 31 29 32 27 33 28 34
REMARK H PARENT 11 6 14 18 14 19
ROOT
ATOM     1   N1  UNL     1       2.209  -0.174   2.263  1.00  0.00    -0.212 N   
ATOM     2   C9  UNL     1       2.236  -0.397   0.915  1.00  0.00     0.045 A   
ATOM     3   C10 UNL     1       0.914  -0.313   0.541  1.00  0.00     0.127 A   
ATOM     4   N3  UNL     1       0.143  -0.099   1.656  1.00  0.00    -0.132 NA  
ATOM     5   N4  UNL     1       0.946  -0.032   2.705  1.00  0.00    -0.076 NA  
ATOM     6   H9  UNL     1       3.159  -0.538   0.370  1.00  0.00     0.083 HD  
ENDROOT
BRANCH   1   7
ATOM     7   C8  UNL     1       3.332  -0.036   3.167  1.00  0.00     0.139 C   
BRANCH   7   8
ATOM     8   C7  UNL     1       3.640   1.424   3.505  1.00  0.00     0.060 C   
BRANCH   8   9
ATOM     9   C6  UNL     1       3.988   2.266   2.300  1.00  0.00    -0.011 A   
ATOM     10  C1  UNL     1       5.154   2.020   1.569  1.00  0.00     0.126 A   
ATOM     11  C2  UNL     1       5.482   2.777   0.449  1.00  0.00     0.039 A   
ATOM     12  C3  UNL     1       4.636   3.807   0.043  1.00  0.00     0.003 A   
ATOM     13  C5  UNL     1       3.145   3.305   1.883  1.00  0.00     0.007 A   
ATOM     14  C4  UNL     1       3.469   4.070   0.760  1.00  0.00     0.000 A   
ATOM     15  F1  UNL     1       5.968   1.020   1.936  1.00  0.00    -0.207 F   
ENDBRANCH   8   9
ENDBRANCH   7   8
ENDBRANCH   1   7
BRANCH   3  16
ATOM     16  C11 UNL     1       0.263  -0.401  -0.801  1.00  0.00     0.117 C   
BRANCH  16  17
ATOM     17  N2  UNL     1      -1.207  -0.687  -0.646  1.00  0.00     0.249 N   
ATOM     18  H11 UNL     1      -1.756  -0.364  -1.448  1.00  0.00     0.199 HD  
ATOM     19  H12 UNL     1      -1.529  -0.133   0.163  1.00  0.00     0.199 HD  
BRANCH  17  20
ATOM     20  C12 UNL     1      -1.548  -2.107  -0.356  1.00  0.00     0.164 C   
BRANCH  20  21
ATOM     21  C13 UNL     1      -3.023  -2.249  -0.112  1.00  0.00    -0.002 A   
ATOM     22  C14 UNL     1      -3.549  -2.048   1.187  1.00  0.00     0.012 A   
ATOM     23  C18 UNL     1      -3.895  -2.524  -1.178  1.00  0.00     0.045 A   
ATOM     24  C15 UNL     1      -4.925  -2.131   1.425  1.00  0.00     0.037 A   
ATOM     25  C17 UNL     1      -5.246  -2.598  -0.909  1.00  0.00     0.109 A   
ATOM     26  C16 UNL     1      -5.747  -2.408   0.356  1.00  0.00     0.108 A   
ATOM     27  O1  UNL     1      -6.220  -2.853  -1.821  1.00  0.00    -0.316 OA  
ATOM     28  O2  UNL     1      -7.100  -2.522   0.400  1.00  0.00    -0.316 OA  
ATOM     29  C19 UNL     1      -7.397  -2.824  -0.981  1.00  0.00     0.337 C   
ENDBRANCH  20  21
ENDBRANCH  17  20
ENDBRANCH  16  17
BRANCH  16  30
ATOM     30  C20 UNL     1       0.475   0.889  -1.619  1.00  0.00     0.043 C   
ATOM     31  C21 UNL     1      -0.205   2.150  -1.069  1.00  0.00     0.010 C   
ATOM     32  C24 UNL     1       0.012   0.799  -3.086  1.00  0.00     0.010 C   
ATOM     33  C22 UNL     1      -0.247   3.071  -2.279  1.00  0.00     0.001 C   
ATOM     34  C23 UNL     1      -0.654   2.136  -3.407  1.00  0.00     0.001 C   
ENDBRANCH  16  30
ENDBRANCH   3  16
TORSDOF 8
