REMARK SMILES COc1ccccc1CCn1cc([C@@H]([NH2+]Cc2ccc3c(c2)OCO3)C(C)(C)C)nn1
REMARK SMILES IDX 11 1 12 2 13 3 30 4 31 5 10 7 9 8 8 9 3 10 4 11 5 12 7 13
REMARK SMILES IDX 6 14 2 15 1 16 14 17 15 18 16 21 17 22 18 23 22 24 19 25
REMARK SMILES IDX 21 26 20 27 23 28 25 29 24 30 26 31 27 32 28 33 29 34
REMARK H PARENT 12 6 15 19 15 20
ROOT
ATOM     1   N1  UNL     1       0.238   2.442   1.254  1.00  0.00    -0.212 N   
ATOM     2   C10 UNL     1      -0.245   2.237  -0.007  1.00  0.00     0.045 A   
ATOM     3   C11 UNL     1      -0.979   1.079   0.107  1.00  0.00     0.127 A   
ATOM     4   N3  UNL     1      -0.949   0.652   1.411  1.00  0.00    -0.132 NA  
ATOM     5   N4  UNL     1      -0.205   1.498   2.104  1.00  0.00    -0.076 NA  
ATOM     6   H12 UNL     1       0.021   2.874  -0.839  1.00  0.00     0.083 HD  
ENDROOT
BRANCH   1   7
ATOM     7   C9  UNL     1       1.153   3.469   1.705  1.00  0.00     0.139 C   
BRANCH   7   8
ATOM     8   C8  UNL     1       2.611   3.008   1.692  1.00  0.00     0.059 C   
BRANCH   8   9
ATOM     9   C7  UNL     1       3.167   2.832   0.296  1.00  0.00    -0.016 A   
ATOM     10  C2  UNL     1       3.289   1.572  -0.310  1.00  0.00     0.078 A   
ATOM     11  C3  UNL     1       3.765   1.445  -1.617  1.00  0.00     0.034 A   
ATOM     12  C4  UNL     1       4.156   2.579  -2.327  1.00  0.00     0.003 A   
ATOM     13  C6  UNL     1       3.566   3.964  -0.433  1.00  0.00     0.006 A   
ATOM     14  C5  UNL     1       4.059   3.837  -1.734  1.00  0.00     0.000 A   
BRANCH  10  15
ATOM     15  O1  UNL     1       2.869   0.447   0.352  1.00  0.00    -0.349 OA  
ATOM     16  C1  UNL     1       3.998  -0.260   0.877  1.00  0.00     0.203 C   
ENDBRANCH  10  15
ENDBRANCH   8   9
ENDBRANCH   7   8
ENDBRANCH   1   7
BRANCH   3  17
ATOM     17  C12 UNL     1      -1.631   0.220  -0.931  1.00  0.00     0.120 C   
BRANCH  17  18
ATOM     18  N2  UNL     1      -1.339  -1.224  -0.596  1.00  0.00     0.250 N   
ATOM     19  H14 UNL     1      -1.958  -1.879  -1.078  1.00  0.00     0.199 HD  
ATOM     20  H15 UNL     1      -1.527  -1.331   0.412  1.00  0.00     0.199 HD  
BRANCH  18  21
ATOM     21  C13 UNL     1       0.075  -1.644  -0.815  1.00  0.00     0.164 C   
BRANCH  21  22
ATOM     22  C14 UNL     1       0.292  -3.042  -0.310  1.00  0.00    -0.002 A   
ATOM     23  C15 UNL     1       0.616  -3.258   1.052  1.00  0.00     0.012 A   
ATOM     24  C19 UNL     1       0.124  -4.143  -1.166  1.00  0.00     0.045 A   
ATOM     25  C16 UNL     1       0.782  -4.553   1.553  1.00  0.00     0.037 A   
ATOM     26  C18 UNL     1       0.296  -5.406  -0.639  1.00  0.00     0.109 A   
ATOM     27  C17 UNL     1       0.616  -5.606   0.681  1.00  0.00     0.108 A   
ATOM     28  O2  UNL     1       0.174  -6.572  -1.326  1.00  0.00    -0.316 OA  
ATOM     29  O3  UNL     1       0.738  -6.923   0.991  1.00  0.00    -0.316 OA  
ATOM     30  C20 UNL     1       0.477  -7.534  -0.290  1.00  0.00     0.337 C   
ENDBRANCH  21  22
ENDBRANCH  18  21
ENDBRANCH  17  18
BRANCH  17  31
ATOM     31  C21 UNL     1      -3.173   0.450  -1.085  1.00  0.00     0.010 C   
ATOM     32  C22 UNL     1      -3.458   1.936  -1.399  1.00  0.00     0.017 C   
ATOM     33  C23 UNL     1      -3.721  -0.375  -2.273  1.00  0.00     0.017 C   
ATOM     34  C24 UNL     1      -3.966   0.060   0.178  1.00  0.00     0.017 C   
ENDBRANCH  17  31
ENDBRANCH   3  17
TORSDOF 9
