REMARK SMILES CC(C)(C)[C@H]([NH2+]Cc1ccc2c(c1)OCO2)c1cn(Cc2ccccc2N([O-])[O-])nn1
REMARK SMILES IDX 17 1 18 2 19 3 30 4 31 5 5 7 2 8 1 9 3 10 4 11 6 12 7 15
REMARK SMILES IDX 8 16 9 17 13 18 10 19 12 20 11 21 14 22 16 23 15 24 20 25
REMARK SMILES IDX 21 26 22 27 26 28 23 29 25 30 24 31 27 32 28 33 29 34
REMARK H PARENT 18 6 6 13 6 14
ROOT
ATOM     1   C14 UNL     1       0.566  -0.774   1.354  1.00  0.00     0.127 A   
ATOM     2   C15 UNL     1       0.267  -2.103   1.561  1.00  0.00     0.046 A   
ATOM     3   N2  UNL     1      -1.094  -2.118   1.701  1.00  0.00    -0.208 N   
ATOM     4   N4  UNL     1      -1.595  -0.869   1.643  1.00  0.00    -0.076 NA  
ATOM     5   N5  UNL     1      -0.590  -0.039   1.417  1.00  0.00    -0.132 NA  
ATOM     6   H20 UNL     1       0.860  -3.008   1.559  1.00  0.00     0.083 HD  
ENDROOT
BRANCH   1   7
ATOM     7   C5  UNL     1       1.853  -0.098   0.982  1.00  0.00     0.120 C   
BRANCH   7   8
ATOM     8   C2  UNL     1       2.637   0.507   2.197  1.00  0.00     0.010 C   
ATOM     9   C1  UNL     1       1.885   1.670   2.875  1.00  0.00     0.017 C   
ATOM     10  C3  UNL     1       4.019   1.029   1.736  1.00  0.00     0.017 C   
ATOM     11  C4  UNL     1       2.901  -0.586   3.257  1.00  0.00     0.017 C   
ENDBRANCH   7   8
BRANCH   7  12
ATOM     12  N1  UNL     1       1.551   0.972  -0.040  1.00  0.00     0.250 N   
ATOM     13  H11 UNL     1       2.290   1.677  -0.106  1.00  0.00     0.199 HD  
ATOM     14  H12 UNL     1       0.710   1.470   0.292  1.00  0.00     0.199 HD  
BRANCH  12  15
ATOM     15  C6  UNL     1       1.246   0.471  -1.412  1.00  0.00     0.164 C   
BRANCH  15  16
ATOM     16  C7  UNL     1       0.782   1.600  -2.287  1.00  0.00    -0.002 A   
ATOM     17  C8  UNL     1      -0.599   1.899  -2.379  1.00  0.00     0.012 A   
ATOM     18  C12 UNL     1       1.713   2.402  -2.969  1.00  0.00     0.045 A   
ATOM     19  C9  UNL     1      -1.051   2.977  -3.146  1.00  0.00     0.037 A   
ATOM     20  C11 UNL     1       1.233   3.458  -3.716  1.00  0.00     0.109 A   
ATOM     21  C10 UNL     1      -0.109   3.739  -3.801  1.00  0.00     0.108 A   
ATOM     22  O1  UNL     1       1.992   4.331  -4.429  1.00  0.00    -0.316 OA  
ATOM     23  O2  UNL     1      -0.363   4.823  -4.580  1.00  0.00    -0.316 OA  
ATOM     24  C13 UNL     1       0.970   5.181  -4.998  1.00  0.00     0.337 C   
ENDBRANCH  15  16
ENDBRANCH  12  15
ENDBRANCH   7  12
ENDBRANCH   1   7
BRANCH   3  25
ATOM     25  C16 UNL     1      -1.972  -3.277   1.796  1.00  0.00     0.171 C   
BRANCH  25  26
ATOM     26  C17 UNL     1      -3.043  -3.304   0.723  1.00  0.00     0.000 A   
ATOM     27  C18 UNL     1      -4.389  -3.384   1.125  1.00  0.00     0.007 A   
ATOM     28  C22 UNL     1      -2.788  -3.264  -0.666  1.00  0.00     0.122 A   
ATOM     29  C19 UNL     1      -5.423  -3.405   0.182  1.00  0.00     0.000 A   
ATOM     30  C21 UNL     1      -3.821  -3.279  -1.615  1.00  0.00     0.031 A   
ATOM     31  C20 UNL     1      -5.142  -3.351  -1.181  1.00  0.00     0.002 A   
BRANCH  28  32
ATOM     32  N3  UNL     1      -1.428  -3.200  -1.175  1.00  0.00     0.092 N   
ATOM     33  O3  UNL     1      -0.630  -4.059  -0.777  1.00  0.00    -0.138 OA  
ATOM     34  O4  UNL     1      -1.142  -2.261  -1.932  1.00  0.00    -0.138 OA  
ENDBRANCH  28  32
ENDBRANCH  25  26
ENDBRANCH   3  25
TORSDOF 8
