REMARK SMILES CC(C)(C)[C@H]([NH2+]Cc1ccc2c(c1)OCO2)c1cn(CCc2cccc(N([O-])[O-])c2)nn1
REMARK SMILES IDX 17 1 18 2 19 3 31 4 32 5 5 7 2 8 1 9 3 10 4 11 6 12 7 15
REMARK SMILES IDX 8 16 9 17 13 18 10 19 12 20 11 21 14 22 16 23 15 24 20 25
REMARK SMILES IDX 21 26 22 27 23 28 30 29 24 30 26 31 25 32 27 33 28 34 29 35
REMARK H PARENT 18 6 6 13 6 14
ROOT
ATOM     1   C14 UNL     1       1.465  -0.709  -0.476  1.00  0.00     0.127 A   
ATOM     2   C15 UNL     1       2.741  -1.081  -0.102  1.00  0.00     0.045 A   
ATOM     3   N2  UNL     1       2.769  -2.439  -0.275  1.00  0.00    -0.212 N   
ATOM     4   N4  UNL     1       1.588  -2.886  -0.726  1.00  0.00    -0.076 NA  
ATOM     5   N5  UNL     1       0.790  -1.841  -0.869  1.00  0.00    -0.132 NA  
ATOM     6   H20 UNL     1       3.599  -0.546   0.278  1.00  0.00     0.083 HD  
ENDROOT
BRANCH   1   7
ATOM     7   C5  UNL     1       0.712   0.597  -0.463  1.00  0.00     0.120 C   
BRANCH   7   8
ATOM     8   C2  UNL     1       1.553   1.923  -0.514  1.00  0.00     0.010 C   
ATOM     9   C1  UNL     1       2.578   1.879  -1.669  1.00  0.00     0.017 C   
ATOM     10  C3  UNL     1       2.289   2.232   0.805  1.00  0.00     0.017 C   
ATOM     11  C4  UNL     1       0.615   3.121  -0.817  1.00  0.00     0.017 C   
ENDBRANCH   7   8
BRANCH   7  12
ATOM     12  N1  UNL     1      -0.242   0.632   0.715  1.00  0.00     0.250 N   
ATOM     13  H11 UNL     1      -0.499   1.590   0.958  1.00  0.00     0.199 HD  
ATOM     14  H12 UNL     1       0.244   0.264   1.552  1.00  0.00     0.199 HD  
BRANCH  12  15
ATOM     15  C6  UNL     1      -1.509  -0.148   0.582  1.00  0.00     0.164 C   
BRANCH  15  16
ATOM     16  C7  UNL     1      -2.461   0.453  -0.416  1.00  0.00    -0.002 A   
ATOM     17  C8  UNL     1      -2.683  -0.180  -1.662  1.00  0.00     0.012 A   
ATOM     18  C12 UNL     1      -3.120   1.661  -0.126  1.00  0.00     0.045 A   
ATOM     19  C9  UNL     1      -3.546   0.382  -2.610  1.00  0.00     0.037 A   
ATOM     20  C11 UNL     1      -3.961   2.189  -1.083  1.00  0.00     0.109 A   
ATOM     21  C10 UNL     1      -4.171   1.567  -2.290  1.00  0.00     0.108 A   
ATOM     22  O1  UNL     1      -4.665   3.345  -0.966  1.00  0.00    -0.316 OA  
ATOM     23  O2  UNL     1      -5.038   2.252  -3.081  1.00  0.00    -0.316 OA  
ATOM     24  C13 UNL     1      -5.371   3.368  -2.227  1.00  0.00     0.337 C   
ENDBRANCH  15  16
ENDBRANCH  12  15
ENDBRANCH   7  12
ENDBRANCH   1   7
BRANCH   3  25
ATOM     25  C16 UNL     1       3.825  -3.368   0.079  1.00  0.00     0.139 C   
BRANCH  25  26
ATOM     26  C17 UNL     1       3.539  -4.149   1.370  1.00  0.00     0.057 C   
BRANCH  26  27
ATOM     27  C18 UNL     1       3.510  -3.266   2.599  1.00  0.00    -0.044 A   
ATOM     28  C19 UNL     1       4.640  -3.126   3.417  1.00  0.00     0.004 A   
ATOM     29  C23 UNL     1       2.359  -2.527   2.904  1.00  0.00     0.035 A   
ATOM     30  C20 UNL     1       4.627  -2.255   4.514  1.00  0.00     0.002 A   
ATOM     31  C22 UNL     1       2.377  -1.621   3.970  1.00  0.00     0.118 A   
ATOM     32  C21 UNL     1       3.497  -1.486   4.792  1.00  0.00     0.031 A   
BRANCH  31  33
ATOM     33  N3  UNL     1       1.238  -0.732   4.149  1.00  0.00     0.092 N   
ATOM     34  O3  UNL     1       0.922  -0.406   5.297  1.00  0.00    -0.138 OA  
ATOM     35  O4  UNL     1       0.670  -0.328   3.112  1.00  0.00    -0.138 OA  
ENDBRANCH  31  33
ENDBRANCH  26  27
ENDBRANCH  25  26
ENDBRANCH   3  25
TORSDOF 9
