REMARK SMILES c1cc(Cn2cc([C@@H]([NH2+]Cc3ccc4c(c3)OCO4)C3CCCC3)nn2)c2nccnc2c1
REMARK SMILES IDX 8 1 7 2 5 3 6 4 26 5 25 6 4 8 3 9 1 10 2 11 33 12 32 13
REMARK SMILES IDX 27 14 31 15 28 16 30 17 29 18 9 19 10 22 11 23 12 24 16 25
REMARK SMILES IDX 13 26 15 27 14 28 17 29 19 30 18 31 20 32 21 33 24 34 22 35
REMARK SMILES IDX 23 36
REMARK H PARENT 6 7 9 20 9 21
ROOT
ATOM     1   C7  UNL     1       1.608  -0.877   0.747  1.00  0.00     0.117 C   
ENDROOT
BRANCH   1   2
ATOM     2   C6  UNL     1       1.211   0.035  -0.366  1.00  0.00     0.127 A   
ATOM     3   N1  UNL     1       0.323   1.462  -1.724  1.00  0.00    -0.208 N   
ATOM     4   C5  UNL     1       0.314   1.079  -0.412  1.00  0.00     0.046 A   
ATOM     5   N4  UNL     1       1.199   0.721  -2.437  1.00  0.00    -0.076 NA  
ATOM     6   N3  UNL     1       1.756  -0.153  -1.614  1.00  0.00    -0.132 NA  
ATOM     7   H5  UNL     1      -0.328   1.550   0.323  1.00  0.00     0.083 HD  
BRANCH   3   8
ATOM     8   C4  UNL     1      -0.458   2.510  -2.362  1.00  0.00     0.171 C   
BRANCH   8   9
ATOM     9   C3  UNL     1      -1.862   2.034  -2.655  1.00  0.00    -0.001 A   
ATOM     10  C1  UNL     1      -3.418   0.959  -4.169  1.00  0.00     0.003 A   
ATOM     11  C2  UNL     1      -2.137   1.407  -3.884  1.00  0.00     0.008 A   
ATOM     12  C25 UNL     1      -4.427   1.124  -3.223  1.00  0.00     0.030 A   
ATOM     13  C24 UNL     1      -4.179   1.722  -1.996  1.00  0.00     0.089 A   
ATOM     14  C21 UNL     1      -2.873   2.192  -1.700  1.00  0.00     0.093 A   
ATOM     15  N6  UNL     1      -5.187   1.840  -1.111  1.00  0.00    -0.253 NA  
ATOM     16  N5  UNL     1      -2.605   2.783  -0.512  1.00  0.00    -0.253 NA  
ATOM     17  C23 UNL     1      -4.902   2.457   0.055  1.00  0.00     0.132 A   
ATOM     18  C22 UNL     1      -3.639   2.924   0.346  1.00  0.00     0.132 A   
ENDBRANCH   8   9
ENDBRANCH   3   8
ENDBRANCH   1   2
BRANCH   1  19
ATOM     19  N2  UNL     1       2.046  -2.205   0.172  1.00  0.00     0.249 N   
ATOM     20  H7  UNL     1       2.300  -2.006  -0.811  1.00  0.00     0.199 HD  
ATOM     21  H8  UNL     1       2.906  -2.541   0.616  1.00  0.00     0.199 HD  
BRANCH  19  22
ATOM     22  C8  UNL     1       1.034  -3.305   0.179  1.00  0.00     0.164 C   
BRANCH  22  23
ATOM     23  C9  UNL     1      -0.258  -2.982  -0.520  1.00  0.00    -0.002 A   
ATOM     24  C10 UNL     1      -0.305  -2.815  -1.925  1.00  0.00     0.012 A   
ATOM     25  C14 UNL     1      -1.436  -2.830   0.228  1.00  0.00     0.045 A   
ATOM     26  C11 UNL     1      -1.502  -2.495  -2.574  1.00  0.00     0.037 A   
ATOM     27  C13 UNL     1      -2.599  -2.515  -0.443  1.00  0.00     0.109 A   
ATOM     28  C12 UNL     1      -2.634  -2.354  -1.804  1.00  0.00     0.108 A   
ATOM     29  O1  UNL     1      -3.811  -2.338   0.134  1.00  0.00    -0.316 OA  
ATOM     30  O2  UNL     1      -3.877  -2.057  -2.258  1.00  0.00    -0.316 OA  
ATOM     31  C15 UNL     1      -4.629  -2.066  -1.028  1.00  0.00     0.337 C   
ENDBRANCH  22  23
ENDBRANCH  19  22
ENDBRANCH   1  19
BRANCH   1  32
ATOM     32  C16 UNL     1       2.715  -0.255   1.624  1.00  0.00     0.043 C   
ATOM     33  C17 UNL     1       3.043  -1.056   2.884  1.00  0.00     0.010 C   
ATOM     34  C20 UNL     1       4.096  -0.081   0.979  1.00  0.00     0.010 C   
ATOM     35  C18 UNL     1       4.309  -0.388   3.400  1.00  0.00     0.001 C   
ATOM     36  C19 UNL     1       5.043   0.128   2.162  1.00  0.00     0.001 C   
ENDBRANCH   1  32
TORSDOF 7
