REMARK SMILES Cc1nc(Cn2cc([C@H](CC(C)C)[NH2+]Cc3ccc4c(c3)OCO4)nn2)cs1
REMARK SMILES IDX 6 1 7 2 8 3 25 4 26 5 5 7 4 8 2 9 3 10 28 11 27 12 1 13 9 14
REMARK SMILES IDX 10 15 11 16 12 17 13 18 14 19 15 22 16 23 17 24 21 25 18 26
REMARK SMILES IDX 20 27 19 28 22 29 24 30 23 31
REMARK H PARENT 7 6 14 20 14 21
ROOT
ATOM     1   N2  UNL     1      -2.274   1.068   0.554  1.00  0.00    -0.206 N   
ATOM     2   C5  UNL     1      -2.370  -0.254   0.213  1.00  0.00     0.046 A   
ATOM     3   C6  UNL     1      -1.226  -0.816   0.732  1.00  0.00     0.127 A   
ATOM     4   N4  UNL     1      -0.492   0.156   1.363  1.00  0.00    -0.132 NA  
ATOM     5   N5  UNL     1      -1.140   1.304   1.246  1.00  0.00    -0.076 NA  
ATOM     6   H6  UNL     1      -3.199  -0.638  -0.367  1.00  0.00     0.083 HD  
ENDROOT
BRANCH   1   7
ATOM     7   C4  UNL     1      -3.204   2.142   0.258  1.00  0.00     0.190 C   
BRANCH   7   8
ATOM     8   C3  UNL     1      -2.970   2.646  -1.126  1.00  0.00     0.067 A   
ATOM     9   C2  UNL     1      -3.201   2.533  -3.332  1.00  0.00     0.075 A   
ATOM     10  N1  UNL     1      -3.470   1.916  -2.200  1.00  0.00    -0.249 NA  
ATOM     11  S1  UNL     1      -2.294   3.983  -3.183  1.00  0.00    -0.081 S   
ATOM     12  C20 UNL     1      -2.294   3.799  -1.481  1.00  0.00     0.072 A   
ATOM     13  C1  UNL     1      -3.620   2.052  -4.678  1.00  0.00     0.075 C   
ENDBRANCH   7   8
ENDBRANCH   1   7
BRANCH   3  14
ATOM     14  C7  UNL     1      -0.683  -2.203   0.645  1.00  0.00     0.114 C   
BRANCH  14  15
ATOM     15  C8  UNL     1      -0.937  -3.022   1.924  1.00  0.00     0.064 C   
BRANCH  15  16
ATOM     16  C9  UNL     1      -2.423  -3.293   2.245  1.00  0.00    -0.012 C   
ATOM     17  C10 UNL     1      -2.535  -4.035   3.580  1.00  0.00     0.007 C   
ATOM     18  C11 UNL     1      -3.116  -4.101   1.148  1.00  0.00     0.007 C   
ENDBRANCH  15  16
ENDBRANCH  14  15
BRANCH  14  19
ATOM     19  N3  UNL     1       0.815  -2.146   0.448  1.00  0.00     0.249 N   
ATOM     20  H17 UNL     1       1.252  -3.052   0.640  1.00  0.00     0.199 HD  
ATOM     21  H18 UNL     1       1.182  -1.488   1.151  1.00  0.00     0.199 HD  
BRANCH  19  22
ATOM     22  C12 UNL     1       1.259  -1.663  -0.889  1.00  0.00     0.164 C   
BRANCH  22  23
ATOM     23  C13 UNL     1       2.758  -1.599  -0.954  1.00  0.00    -0.002 A   
ATOM     24  C14 UNL     1       3.438  -0.438  -0.516  1.00  0.00     0.012 A   
ATOM     25  C18 UNL     1       3.496  -2.708  -1.402  1.00  0.00     0.045 A   
ATOM     26  C15 UNL     1       4.835  -0.372  -0.539  1.00  0.00     0.037 A   
ATOM     27  C17 UNL     1       4.872  -2.610  -1.410  1.00  0.00     0.109 A   
ATOM     28  C16 UNL     1       5.523  -1.475  -0.993  1.00  0.00     0.108 A   
ATOM     29  O1  UNL     1       5.731  -3.583  -1.813  1.00  0.00    -0.316 OA  
ATOM     30  O2  UNL     1       6.873  -1.587  -1.087  1.00  0.00    -0.316 OA  
ATOM     31  C19 UNL     1       7.003  -2.918  -1.630  1.00  0.00     0.337 C   
ENDBRANCH  22  23
ENDBRANCH  19  22
ENDBRANCH  14  19
ENDBRANCH   3  14
TORSDOF 8
