REMARK SMILES CC(C)[C@H]([NH2+]Cc1ccc2c(c1)OCO2)c1cn(Cc2cc(F)ccc2O)nn1
REMARK SMILES IDX 16 1 17 2 18 3 28 4 29 5 4 7 2 8 1 9 3 10 5 11 6 14 7 15
REMARK SMILES IDX 8 16 12 17 9 18 11 19 10 20 13 21 15 22 14 23 19 24 20 25
REMARK SMILES IDX 21 26 26 27 22 28 25 29 24 30 23 31 27 32
REMARK H PARENT 17 6 5 12 5 13 27 33
ROOT
ATOM     1   C13 UNL     1       0.559   1.153   1.525  1.00  0.00     0.127 A   
ATOM     2   C14 UNL     1       0.498   2.161   0.590  1.00  0.00     0.046 A   
ATOM     3   N2  UNL     1       1.730   2.751   0.657  1.00  0.00    -0.208 N   
ATOM     4   N3  UNL     1       2.500   2.148   1.585  1.00  0.00    -0.076 NA  
ATOM     5   N4  UNL     1       1.792   1.172   2.128  1.00  0.00    -0.132 NA  
ATOM     6   H18 UNL     1      -0.262   2.494  -0.104  1.00  0.00     0.083 HD  
ENDROOT
BRANCH   1   7
ATOM     7   C4  UNL     1      -0.431   0.100   1.904  1.00  0.00     0.117 C   
BRANCH   7   8
ATOM     8   C2  UNL     1      -1.449   0.606   2.961  1.00  0.00     0.037 C   
ATOM     9   C1  UNL     1      -2.645  -0.346   3.094  1.00  0.00     0.014 C   
ATOM     10  C3  UNL     1      -0.840   0.865   4.344  1.00  0.00     0.014 C   
ENDBRANCH   7   8
BRANCH   7  11
ATOM     11  N1  UNL     1       0.277  -1.136   2.409  1.00  0.00     0.249 N   
ATOM     12  H9  UNL     1       0.967  -0.808   3.099  1.00  0.00     0.199 HD  
ATOM     13  H10 UNL     1      -0.373  -1.756   2.898  1.00  0.00     0.199 HD  
BRANCH  11  14
ATOM     14  C5  UNL     1       1.030  -1.926   1.389  1.00  0.00     0.164 C   
BRANCH  14  15
ATOM     15  C6  UNL     1       0.136  -2.561   0.361  1.00  0.00    -0.002 A   
ATOM     16  C7  UNL     1       0.135  -2.084  -0.973  1.00  0.00     0.012 A   
ATOM     17  C11 UNL     1      -0.726  -3.612   0.720  1.00  0.00     0.045 A   
ATOM     18  C8  UNL     1      -0.716  -2.640  -1.934  1.00  0.00     0.037 A   
ATOM     19  C10 UNL     1      -1.552  -4.136  -0.252  1.00  0.00     0.109 A   
ATOM     20  C9  UNL     1      -1.549  -3.664  -1.542  1.00  0.00     0.108 A   
ATOM     21  O1  UNL     1      -2.444  -5.144  -0.071  1.00  0.00    -0.316 OA  
ATOM     22  O2  UNL     1      -2.437  -4.316  -2.335  1.00  0.00    -0.316 OA  
ATOM     23  C12 UNL     1      -2.982  -5.278  -1.406  1.00  0.00     0.337 C   
ENDBRANCH  14  15
ENDBRANCH  11  14
ENDBRANCH   7  11
ENDBRANCH   1   7
BRANCH   3  24
ATOM     24  C15 UNL     1       2.239   3.868  -0.120  1.00  0.00     0.172 C   
BRANCH  24  25
ATOM     25  C16 UNL     1       2.729   3.405  -1.467  1.00  0.00     0.004 A   
ATOM     26  C17 UNL     1       4.039   2.921  -1.609  1.00  0.00     0.047 A   
ATOM     27  C21 UNL     1       1.898   3.419  -2.595  1.00  0.00     0.076 A   
ATOM     28  C18 UNL     1       4.490   2.482  -2.850  1.00  0.00     0.123 A   
ATOM     29  C20 UNL     1       2.356   2.983  -3.840  1.00  0.00     0.036 A   
ATOM     30  C19 UNL     1       3.662   2.512  -3.966  1.00  0.00     0.042 A   
ATOM     31  F1  UNL     1       5.740   2.017  -2.969  1.00  0.00    -0.207 F   
BRANCH  27  32
ATOM     32  O3  UNL     1       0.614   3.863  -2.457  1.00  0.00    -0.361 OA  
ATOM     33  H24 UNL     1       0.234   3.995  -3.345  1.00  0.00     0.218 HD  
ENDBRANCH  27  32
ENDBRANCH  24  25
ENDBRANCH   3  24
TORSDOF 8
