REMARK SMILES CC(C)C[C@H]([NH2+]Cc1ccc2c(c1)OCO2)c1cn([C@@H](CO)c2cc[nH]c2)nn1
REMARK SMILES IDX 17 1 18 2 19 3 28 4 29 5 5 7 4 8 2 9 1 10 3 11 6 12 7 15
REMARK SMILES IDX 8 16 9 17 13 18 10 19 12 20 11 21 14 22 16 23 15 24 20 25
REMARK SMILES IDX 21 26 22 27 23 29 24 30 27 31 25 32 26 33
REMARK H PARENT 18 6 6 13 6 14 22 28 26 34
ROOT
ATOM     1   C14 UNL     1      -0.658   0.329  -1.062  1.00  0.00     0.127 A   
ATOM     2   C15 UNL     1      -1.676   0.127  -0.159  1.00  0.00     0.046 A   
ATOM     3   N2  UNL     1      -2.613   1.070  -0.490  1.00  0.00    -0.202 N   
ATOM     4   N4  UNL     1      -2.215   1.766  -1.579  1.00  0.00    -0.075 NA  
ATOM     5   N5  UNL     1      -1.018   1.326  -1.930  1.00  0.00    -0.132 NA  
ATOM     6   H20 UNL     1      -1.818  -0.560   0.664  1.00  0.00     0.083 HD  
ENDROOT
BRANCH   1   7
ATOM     7   C5  UNL     1       0.649  -0.370  -1.241  1.00  0.00     0.114 C   
BRANCH   7   8
ATOM     8   C4  UNL     1       1.829   0.454  -0.696  1.00  0.00     0.064 C   
BRANCH   8   9
ATOM     9   C2  UNL     1       1.786   0.733   0.823  1.00  0.00    -0.012 C   
ATOM     10  C1  UNL     1       2.971   1.623   1.215  1.00  0.00     0.007 C   
ATOM     11  C3  UNL     1       1.813  -0.552   1.651  1.00  0.00     0.007 C   
ENDBRANCH   8   9
ENDBRANCH   7   8
BRANCH   7  12
ATOM     12  N1  UNL     1       0.836  -0.591  -2.727  1.00  0.00     0.249 N   
ATOM     13  H11 UNL     1      -0.032  -1.021  -3.067  1.00  0.00     0.199 HD  
ATOM     14  H12 UNL     1       0.841   0.338  -3.167  1.00  0.00     0.199 HD  
BRANCH  12  15
ATOM     15  C6  UNL     1       1.986  -1.401  -3.200  1.00  0.00     0.164 C   
BRANCH  15  16
ATOM     16  C7  UNL     1       2.017  -2.788  -2.621  1.00  0.00    -0.002 A   
ATOM     17  C8  UNL     1       2.978  -3.131  -1.640  1.00  0.00     0.012 A   
ATOM     18  C12 UNL     1       1.068  -3.745  -3.023  1.00  0.00     0.045 A   
ATOM     19  C9  UNL     1       2.991  -4.404  -1.059  1.00  0.00     0.037 A   
ATOM     20  C11 UNL     1       1.110  -4.991  -2.431  1.00  0.00     0.109 A   
ATOM     21  C10 UNL     1       2.042  -5.311  -1.476  1.00  0.00     0.108 A   
ATOM     22  O1  UNL     1       0.265  -6.022  -2.697  1.00  0.00    -0.316 OA  
ATOM     23  O2  UNL     1       1.903  -6.583  -1.020  1.00  0.00    -0.316 OA  
ATOM     24  C13 UNL     1       0.795  -7.043  -1.821  1.00  0.00     0.337 C   
ENDBRANCH  15  16
ENDBRANCH  12  15
ENDBRANCH   7  12
ENDBRANCH   1   7
BRANCH   3  25
ATOM     25  C16 UNL     1      -3.900   1.361   0.139  1.00  0.00     0.156 C   
BRANCH  25  26
ATOM     26  C17 UNL     1      -5.021   0.479  -0.438  1.00  0.00     0.185 C   
BRANCH  26  27
ATOM     27  O3  UNL     1      -4.756  -0.922  -0.313  1.00  0.00    -0.394 OA  
ATOM     28  H24 UNL     1      -5.570  -1.385  -0.583  1.00  0.00     0.210 HD  
ENDBRANCH  26  27
ENDBRANCH  25  26
BRANCH  25  29
ATOM     29  C18 UNL     1      -3.784   1.357   1.648  1.00  0.00    -0.008 A   
ATOM     30  C19 UNL     1      -3.335   2.451   2.447  1.00  0.00     0.022 A   
ATOM     31  C21 UNL     1      -4.082   0.338   2.537  1.00  0.00     0.077 A   
ATOM     32  C20 UNL     1      -3.380   2.063   3.765  1.00  0.00     0.072 A   
ATOM     33  N3  UNL     1      -3.841   0.777   3.813  1.00  0.00    -0.327 N   
ATOM     34  H27 UNL     1      -3.992   0.238   4.657  1.00  0.00     0.152 HD  
ENDBRANCH  25  29
ENDBRANCH   3  25
TORSDOF 10
