REMARK SMILES CC(C)C[C@H]([NH2+]Cc1ccc2c(c1)OCO2)c1cn([C@H](CO)c2cc[nH]c2)nn1
REMARK SMILES IDX 17 1 18 2 19 3 28 4 29 5 5 7 4 8 2 9 1 10 3 11 6 12 7 15
REMARK SMILES IDX 8 16 9 17 13 18 10 19 12 20 11 21 14 22 16 23 15 24 20 25
REMARK SMILES IDX 21 26 22 27 23 29 24 30 27 31 25 32 26 33
REMARK H PARENT 18 6 6 13 6 14 22 28 26 34
ROOT
ATOM     1   C14 UNL     1       1.517  -0.096   1.131  1.00  0.00     0.127 A   
ATOM     2   C15 UNL     1       1.350   0.638   2.284  1.00  0.00     0.046 A   
ATOM     3   N2  UNL     1      -0.011   0.719   2.437  1.00  0.00    -0.202 N   
ATOM     4   N4  UNL     1      -0.638   0.050   1.444  1.00  0.00    -0.075 NA  
ATOM     5   N5  UNL     1       0.286  -0.449   0.642  1.00  0.00    -0.132 NA  
ATOM     6   H20 UNL     1       2.035   1.105   2.978  1.00  0.00     0.083 HD  
ENDROOT
BRANCH   1   7
ATOM     7   C5  UNL     1       2.751  -0.534   0.416  1.00  0.00     0.114 C   
BRANCH   7   8
ATOM     8   C4  UNL     1       3.578   0.625  -0.178  1.00  0.00     0.064 C   
BRANCH   8   9
ATOM     9   C2  UNL     1       3.066   1.315  -1.464  1.00  0.00    -0.012 C   
ATOM     10  C1  UNL     1       1.741   2.053  -1.280  1.00  0.00     0.007 C   
ATOM     11  C3  UNL     1       4.127   2.306  -1.959  1.00  0.00     0.007 C   
ENDBRANCH   8   9
ENDBRANCH   7   8
BRANCH   7  12
ATOM     12  N1  UNL     1       2.445  -1.530  -0.666  1.00  0.00     0.249 N   
ATOM     13  H11 UNL     1       3.187  -1.565  -1.371  1.00  0.00     0.199 HD  
ATOM     14  H12 UNL     1       1.597  -1.194  -1.146  1.00  0.00     0.199 HD  
BRANCH  12  15
ATOM     15  C6  UNL     1       2.159  -2.914  -0.193  1.00  0.00     0.164 C   
BRANCH  15  16
ATOM     16  C7  UNL     1       1.784  -3.794  -1.352  1.00  0.00    -0.002 A   
ATOM     17  C8  UNL     1       2.767  -4.569  -2.013  1.00  0.00     0.012 A   
ATOM     18  C12 UNL     1       0.459  -3.806  -1.821  1.00  0.00     0.045 A   
ATOM     19  C9  UNL     1       2.434  -5.354  -3.122  1.00  0.00     0.037 A   
ATOM     20  C11 UNL     1       0.166  -4.591  -2.917  1.00  0.00     0.109 A   
ATOM     21  C10 UNL     1       1.125  -5.341  -3.550  1.00  0.00     0.108 A   
ATOM     22  O1  UNL     1      -1.057  -4.714  -3.497  1.00  0.00    -0.316 OA  
ATOM     23  O2  UNL     1       0.628  -6.034  -4.607  1.00  0.00    -0.316 OA  
ATOM     24  C13 UNL     1      -0.764  -5.654  -4.556  1.00  0.00     0.337 C   
ENDBRANCH  15  16
ENDBRANCH  12  15
ENDBRANCH   7  12
ENDBRANCH   1   7
BRANCH   3  25
ATOM     25  C16 UNL     1      -0.748   1.425   3.487  1.00  0.00     0.156 C   
BRANCH  25  26
ATOM     26  C17 UNL     1      -1.891   0.582   4.073  1.00  0.00     0.185 C   
BRANCH  26  27
ATOM     27  O3  UNL     1      -1.365  -0.498   4.852  1.00  0.00    -0.394 OA  
ATOM     28  H24 UNL     1      -2.131  -0.975   5.222  1.00  0.00     0.210 HD  
ENDBRANCH  26  27
ENDBRANCH  25  26
BRANCH  25  29
ATOM     29  C18 UNL     1      -1.208   2.770   2.982  1.00  0.00    -0.008 A   
ATOM     30  C19 UNL     1      -2.095   3.031   1.895  1.00  0.00     0.022 A   
ATOM     31  C21 UNL     1      -0.861   4.007   3.499  1.00  0.00     0.077 A   
ATOM     32  C20 UNL     1      -2.249   4.394   1.793  1.00  0.00     0.072 A   
ATOM     33  N3  UNL     1      -1.499   4.981   2.775  1.00  0.00    -0.327 N   
ATOM     34  H27 UNL     1      -1.434   5.978   2.944  1.00  0.00     0.152 HD  
ENDBRANCH  25  29
ENDBRANCH   3  25
TORSDOF 10
