REMARK SMILES Oc1c(F)cc(F)cc1CCn1cc([C@@H]([NH2+]Cc2ccc3c(c2)OCO3)C2CCCC2)nn1
REMARK SMILES IDX 12 1 13 2 14 3 32 4 33 5 11 7 10 8 9 9 2 10 3 11 5 12 8 13
REMARK SMILES IDX 6 14 4 15 7 16 1 17 15 19 16 20 17 23 18 24 19 25 23 26
REMARK SMILES IDX 20 27 22 28 21 29 24 30 26 31 25 32 27 33 28 34 31 35 29 36
REMARK SMILES IDX 30 37
REMARK H PARENT 13 6 1 18 16 21 16 22
ROOT
ATOM     1   N1  UNL     1       2.305  -2.192  -0.996  1.00  0.00    -0.212 N   
ATOM     2   C9  UNL     1       2.425  -0.845  -0.799  1.00  0.00     0.045 A   
ATOM     3   C10 UNL     1       1.618  -0.596   0.289  1.00  0.00     0.127 A   
ATOM     4   N3  UNL     1       1.059  -1.774   0.714  1.00  0.00    -0.132 NA  
ATOM     5   N4  UNL     1       1.483  -2.741  -0.083  1.00  0.00    -0.076 NA  
ATOM     6   H8  UNL     1       3.023  -0.217  -1.446  1.00  0.00     0.083 HD  
ENDROOT
BRANCH   1   7
ATOM     7   C8  UNL     1       2.835  -2.987  -2.087  1.00  0.00     0.139 C   
BRANCH   7   8
ATOM     8   C7  UNL     1       1.754  -3.406  -3.087  1.00  0.00     0.060 C   
BRANCH   8   9
ATOM     9   C6  UNL     1       1.048  -2.227  -3.719  1.00  0.00    -0.010 A   
ATOM     10  C1  UNL     1       1.640  -1.476  -4.737  1.00  0.00     0.111 A   
ATOM     11  C2  UNL     1       0.984  -0.370  -5.281  1.00  0.00     0.156 A   
ATOM     12  C3  UNL     1      -0.259   0.027  -4.809  1.00  0.00     0.081 A   
ATOM     13  C5  UNL     1      -0.213  -1.829  -3.248  1.00  0.00     0.046 A   
ATOM     14  C4  UNL     1      -0.842  -0.706  -3.785  1.00  0.00     0.126 A   
ATOM     15  F1  UNL     1       1.582   0.334  -6.251  1.00  0.00    -0.204 F   
ATOM     16  F2  UNL     1      -2.013  -0.307  -3.270  1.00  0.00    -0.207 F   
BRANCH  10  17
ATOM     17  O1  UNL     1       2.886  -1.820  -5.181  1.00  0.00    -0.358 OA  
ATOM     18  H1  UNL     1       3.082  -1.265  -5.963  1.00  0.00     0.218 HD  
ENDBRANCH  10  17
ENDBRANCH   8   9
ENDBRANCH   7   8
ENDBRANCH   1   7
BRANCH   3  19
ATOM     19  C11 UNL     1       1.234   0.682   0.961  1.00  0.00     0.117 C   
BRANCH  19  20
ATOM     20  N2  UNL     1      -0.228   0.634   1.332  1.00  0.00     0.249 N   
ATOM     21  H10 UNL     1      -0.478   1.371   1.997  1.00  0.00     0.199 HD  
ATOM     22  H11 UNL     1      -0.382  -0.261   1.820  1.00  0.00     0.199 HD  
BRANCH  20  23
ATOM     23  C12 UNL     1      -1.181   0.684   0.186  1.00  0.00     0.164 C   
BRANCH  23  24
ATOM     24  C13 UNL     1      -2.596   0.602   0.680  1.00  0.00    -0.002 A   
ATOM     25  C14 UNL     1      -3.207  -0.660   0.878  1.00  0.00     0.012 A   
ATOM     26  C18 UNL     1      -3.303   1.772   1.004  1.00  0.00     0.045 A   
ATOM     27  C15 UNL     1      -4.509  -0.757   1.379  1.00  0.00     0.037 A   
ATOM     28  C17 UNL     1      -4.585   1.641   1.497  1.00  0.00     0.109 A   
ATOM     29  C16 UNL     1      -5.172   0.413   1.679  1.00  0.00     0.108 A   
ATOM     30  O2  UNL     1      -5.401   2.666   1.857  1.00  0.00    -0.316 OA  
ATOM     31  O3  UNL     1      -6.432   0.509   2.175  1.00  0.00    -0.316 OA  
ATOM     32  C19 UNL     1      -6.585   1.942   2.265  1.00  0.00     0.337 C   
ENDBRANCH  23  24
ENDBRANCH  20  23
ENDBRANCH  19  20
BRANCH  19  33
ATOM     33  C20 UNL     1       2.055   0.931   2.241  1.00  0.00     0.043 C   
ATOM     34  C21 UNL     1       3.557   1.090   1.981  1.00  0.00     0.010 C   
ATOM     35  C24 UNL     1       1.714   2.241   2.965  1.00  0.00     0.010 C   
ATOM     36  C22 UNL     1       4.075   1.690   3.278  1.00  0.00     0.001 C   
ATOM     37  C23 UNL     1       2.966   2.621   3.756  1.00  0.00     0.001 C   
ENDBRANCH  19  33
ENDBRANCH   3  19
TORSDOF 9
