REMARK SMILES COc1cc(Cn2cc([C@@H]([NH2+]Cc3ccc4c(c3)OCO4)C3CCCCC3)nn2)ccn1
REMARK SMILES IDX 7 1 8 2 9 3 28 4 29 5 6 7 5 8 3 9 4 10 32 11 31 12 30 13
REMARK SMILES IDX 2 14 1 15 10 16 11 17 12 20 13 21 14 22 18 23 15 24 17 25
REMARK SMILES IDX 16 26 19 27 21 28 20 29 22 30 23 31 27 32 24 33 26 34 25 35
REMARK H PARENT 8 6 11 18 11 19
ROOT
ATOM     1   N1  UNL     1       1.909   1.306  -2.382  1.00  0.00    -0.208 N   
ATOM     2   C6  UNL     1       1.728   0.070  -1.823  1.00  0.00     0.046 A   
ATOM     3   C7  UNL     1       0.381   0.028  -1.538  1.00  0.00     0.127 A   
ATOM     4   N3  UNL     1      -0.205   1.192  -1.960  1.00  0.00    -0.132 NA  
ATOM     5   N4  UNL     1       0.740   1.970  -2.462  1.00  0.00    -0.076 NA  
ATOM     6   H7  UNL     1       2.548  -0.611  -1.640  1.00  0.00     0.083 HD  
ENDROOT
BRANCH   1   7
ATOM     7   C5  UNL     1       3.163   1.957  -2.733  1.00  0.00     0.169 C   
BRANCH   7   8
ATOM     8   C4  UNL     1       4.009   2.161  -1.502  1.00  0.00    -0.023 A   
ATOM     9   C2  UNL     1       4.353   3.131   0.665  1.00  0.00     0.166 A   
ATOM     10  C3  UNL     1       3.594   3.036  -0.490  1.00  0.00     0.060 A   
ATOM     11  N5  UNL     1       5.481   2.425   0.874  1.00  0.00    -0.233 NA  
ATOM     12  C24 UNL     1       5.893   1.620  -0.127  1.00  0.00     0.114 A   
ATOM     13  C23 UNL     1       5.199   1.451  -1.315  1.00  0.00     0.026 A   
BRANCH   9  14
ATOM     14  O1  UNL     1       3.855   3.953   1.653  1.00  0.00    -0.333 OA  
ATOM     15  C1  UNL     1       4.750   4.102   2.753  1.00  0.00     0.205 C   
ENDBRANCH   9  14
ENDBRANCH   7   8
ENDBRANCH   1   7
BRANCH   3  16
ATOM     16  C8  UNL     1      -0.430  -0.991  -0.803  1.00  0.00     0.117 C   
BRANCH  16  17
ATOM     17  N2  UNL     1      -1.319  -0.299   0.215  1.00  0.00     0.249 N   
ATOM     18  H9  UNL     1      -1.890  -0.984   0.712  1.00  0.00     0.199 HD  
ATOM     19  H10 UNL     1      -1.954   0.311  -0.316  1.00  0.00     0.199 HD  
BRANCH  17  20
ATOM     20  C9  UNL     1      -0.640   0.559   1.239  1.00  0.00     0.164 C   
BRANCH  20  21
ATOM     21  C10 UNL     1       0.382  -0.176   2.061  1.00  0.00    -0.002 A   
ATOM     22  C11 UNL     1       1.751   0.169   1.962  1.00  0.00     0.012 A   
ATOM     23  C15 UNL     1      -0.006  -1.216   2.923  1.00  0.00     0.045 A   
ATOM     24  C12 UNL     1       2.725  -0.517   2.694  1.00  0.00     0.037 A   
ATOM     25  C14 UNL     1       0.979  -1.874   3.630  1.00  0.00     0.109 A   
ATOM     26  C13 UNL     1       2.306  -1.538   3.518  1.00  0.00     0.108 A   
ATOM     27  O2  UNL     1       0.775  -2.902   4.494  1.00  0.00    -0.316 OA  
ATOM     28  O3  UNL     1       3.105  -2.313   4.296  1.00  0.00    -0.316 OA  
ATOM     29  C16 UNL     1       2.127  -3.153   4.945  1.00  0.00     0.337 C   
ENDBRANCH  20  21
ENDBRANCH  17  20
ENDBRANCH  16  17
BRANCH  16  30
ATOM     30  C17 UNL     1      -1.315  -1.846  -1.763  1.00  0.00     0.043 C   
ATOM     31  C18 UNL     1      -2.206  -2.856  -1.006  1.00  0.00     0.010 C   
ATOM     32  C22 UNL     1      -0.437  -2.599  -2.789  1.00  0.00     0.010 C   
ATOM     33  C19 UNL     1      -3.004  -3.759  -1.945  1.00  0.00     0.001 C   
ATOM     34  C21 UNL     1      -1.251  -3.496  -3.718  1.00  0.00     0.001 C   
ATOM     35  C20 UNL     1      -2.105  -4.483  -2.936  1.00  0.00     0.000 C   
ENDBRANCH  16  30
ENDBRANCH   3  16
TORSDOF 8
