REMARK SMILES [O-]N([O-])c1cccc(F)c1Cn1cc([C@@H]([NH2+]Cc2ccc3c(c2)OCO3)C2CCCC2)nn1
REMARK SMILES IDX 12 1 13 2 14 3 32 4 33 5 11 7 10 8 4 9 5 10 6 11 8 12 7 13
REMARK SMILES IDX 9 14 2 15 1 16 3 17 15 18 16 19 17 22 18 23 19 24 23 25
REMARK SMILES IDX 20 26 22 27 21 28 24 29 26 30 25 31 27 32 28 33 31 34 29 35
REMARK SMILES IDX 30 36
REMARK H PARENT 13 6 16 20 16 21
ROOT
ATOM     1   N2  UNL     1      -0.952  -3.551  -0.821  1.00  0.00    -0.208 N   
ATOM     2   C8  UNL     1      -1.081  -2.575  -1.773  1.00  0.00     0.046 A   
ATOM     3   C9  UNL     1      -0.081  -1.678  -1.468  1.00  0.00     0.127 A   
ATOM     4   N4  UNL     1       0.623  -2.140  -0.386  1.00  0.00    -0.132 NA  
ATOM     5   N5  UNL     1       0.093  -3.292  -0.011  1.00  0.00    -0.076 NA  
ATOM     6   H6  UNL     1      -1.869  -2.588  -2.513  1.00  0.00     0.083 HD  
ENDROOT
BRANCH   1   7
ATOM     7   C7  UNL     1      -1.850  -4.670  -0.564  1.00  0.00     0.174 C   
BRANCH   7   8
ATOM     8   C6  UNL     1      -2.165  -4.867   0.901  1.00  0.00     0.036 A   
ATOM     9   C1  UNL     1      -2.660  -3.871   1.771  1.00  0.00     0.125 A   
ATOM     10  C2  UNL     1      -2.909  -4.127   3.130  1.00  0.00     0.032 A   
ATOM     11  C3  UNL     1      -2.681  -5.403   3.642  1.00  0.00     0.005 A   
ATOM     12  C5  UNL     1      -1.964  -6.136   1.454  1.00  0.00     0.130 A   
ATOM     13  C4  UNL     1      -2.214  -6.409   2.799  1.00  0.00     0.040 A   
ATOM     14  F1  UNL     1      -1.512  -7.129   0.679  1.00  0.00    -0.207 F   
BRANCH   9  15
ATOM     15  N1  UNL     1      -2.938  -2.522   1.290  1.00  0.00     0.092 N   
ATOM     16  O1  UNL     1      -2.471  -1.571   1.932  1.00  0.00    -0.138 OA  
ATOM     17  O2  UNL     1      -3.596  -2.414   0.246  1.00  0.00    -0.138 OA  
ENDBRANCH   9  15
ENDBRANCH   7   8
ENDBRANCH   1   7
BRANCH   3  18
ATOM     18  C10 UNL     1       0.262  -0.344  -2.046  1.00  0.00     0.117 C   
BRANCH  18  19
ATOM     19  N3  UNL     1       0.445   0.647  -0.924  1.00  0.00     0.249 N   
ATOM     20  H8  UNL     1       1.035   0.188  -0.210  1.00  0.00     0.199 HD  
ATOM     21  H9  UNL     1       0.964   1.476  -1.233  1.00  0.00     0.199 HD  
BRANCH  19  22
ATOM     22  C11 UNL     1      -0.808   1.090  -0.247  1.00  0.00     0.164 C   
BRANCH  22  23
ATOM     23  C12 UNL     1      -0.488   2.055   0.860  1.00  0.00    -0.002 A   
ATOM     24  C13 UNL     1      -0.475   1.616   2.207  1.00  0.00     0.012 A   
ATOM     25  C17 UNL     1      -0.145   3.387   0.560  1.00  0.00     0.045 A   
ATOM     26  C14 UNL     1      -0.132   2.491   3.244  1.00  0.00     0.037 A   
ATOM     27  C16 UNL     1       0.200   4.219   1.605  1.00  0.00     0.109 A   
ATOM     28  C15 UNL     1       0.205   3.786   2.909  1.00  0.00     0.108 A   
ATOM     29  O3  UNL     1       0.577   5.519   1.487  1.00  0.00    -0.316 OA  
ATOM     30  O4  UNL     1       0.573   4.763   3.778  1.00  0.00    -0.316 OA  
ATOM     31  C18 UNL     1       0.832   5.856   2.871  1.00  0.00     0.337 C   
ENDBRANCH  22  23
ENDBRANCH  19  22
ENDBRANCH  18  19
BRANCH  18  32
ATOM     32  C19 UNL     1       1.564  -0.394  -2.868  1.00  0.00     0.043 C   
ATOM     33  C20 UNL     1       1.483  -1.321  -4.085  1.00  0.00     0.010 C   
ATOM     34  C23 UNL     1       1.966   0.945  -3.502  1.00  0.00     0.010 C   
ATOM     35  C21 UNL     1       2.702  -0.919  -4.901  1.00  0.00     0.001 C   
ATOM     36  C22 UNL     1       2.791   0.594  -4.742  1.00  0.00     0.001 C   
ENDBRANCH  18  32
ENDBRANCH   3  18
TORSDOF 8
