REMARK SMILES CCc1ccc([C@@H](CO)n2cc([C@@H]([NH2+]Cc3ccc4c(c3)OCO4)C(C)C)nn2)cc1
REMARK SMILES IDX 10 1 11 2 12 3 28 4 29 5 7 7 6 8 3 9 4 10 31 11 5 12 30 13
REMARK SMILES IDX 2 14 1 15 8 16 9 17 13 19 14 20 15 23 16 24 17 25 21 26
REMARK SMILES IDX 18 27 20 28 19 29 22 30 24 31 23 32 25 33 26 34 27 35
REMARK H PARENT 11 6 9 18 14 21 14 22
ROOT
ATOM     1   N1  UNL     1      -0.036  -2.645   1.753  1.00  0.00    -0.202 N   
ATOM     2   C9  UNL     1      -0.391  -1.347   1.505  1.00  0.00     0.046 A   
ATOM     3   C10 UNL     1      -1.464  -1.441   0.654  1.00  0.00     0.127 A   
ATOM     4   N3  UNL     1      -1.729  -2.764   0.411  1.00  0.00    -0.132 NA  
ATOM     5   N4  UNL     1      -0.869  -3.493   1.103  1.00  0.00    -0.075 NA  
ATOM     6   H12 UNL     1       0.160  -0.508   1.919  1.00  0.00     0.083 HD  
ENDROOT
BRANCH   1   7
ATOM     7   C7  UNL     1       1.115  -3.159   2.492  1.00  0.00     0.155 C   
BRANCH   7   8
ATOM     8   C6  UNL     1       2.404  -2.752   1.782  1.00  0.00    -0.023 A   
ATOM     9   C3  UNL     1       4.726  -2.026   0.334  1.00  0.00    -0.048 A   
ATOM     10  C4  UNL     1       4.076  -3.237   0.073  1.00  0.00     0.004 A   
ATOM     11  C24 UNL     1       4.207  -1.181   1.322  1.00  0.00     0.004 A   
ATOM     12  C5  UNL     1       2.928  -3.595   0.783  1.00  0.00     0.006 A   
ATOM     13  C23 UNL     1       3.062  -1.540   2.039  1.00  0.00     0.006 A   
BRANCH   9  14
ATOM     14  C2  UNL     1       5.955  -1.629  -0.445  1.00  0.00     0.032 C   
ATOM     15  C1  UNL     1       5.603  -1.047  -1.806  1.00  0.00     0.009 C   
ENDBRANCH   9  14
ENDBRANCH   7   8
BRANCH   7  16
ATOM     16  C8  UNL     1       1.027  -2.860   4.005  1.00  0.00     0.185 C   
BRANCH  16  17
ATOM     17  O1  UNL     1       0.900  -1.467   4.303  1.00  0.00    -0.394 OA  
ATOM     18  H11 UNL     1       0.885  -1.381   5.276  1.00  0.00     0.210 HD  
ENDBRANCH  16  17
ENDBRANCH   7  16
ENDBRANCH   1   7
BRANCH   3  19
ATOM     19  C11 UNL     1      -2.236  -0.379  -0.050  1.00  0.00     0.117 C   
BRANCH  19  20
ATOM     20  N2  UNL     1      -2.508  -0.797  -1.479  1.00  0.00     0.249 N   
ATOM     21  H14 UNL     1      -3.212  -0.183  -1.899  1.00  0.00     0.199 HD  
ATOM     22  H15 UNL     1      -2.910  -1.744  -1.433  1.00  0.00     0.199 HD  
BRANCH  20  23
ATOM     23  C12 UNL     1      -1.313  -0.874  -2.375  1.00  0.00     0.164 C   
BRANCH  23  24
ATOM     24  C13 UNL     1      -0.633   0.456  -2.570  1.00  0.00    -0.002 A   
ATOM     25  C14 UNL     1       0.645   0.692  -2.005  1.00  0.00     0.012 A   
ATOM     26  C18 UNL     1      -1.273   1.484  -3.285  1.00  0.00     0.045 A   
ATOM     27  C15 UNL     1       1.274   1.935  -2.141  1.00  0.00     0.037 A   
ATOM     28  C17 UNL     1      -0.623   2.697  -3.399  1.00  0.00     0.109 A   
ATOM     29  C16 UNL     1       0.613   2.917  -2.843  1.00  0.00     0.108 A   
ATOM     30  O2  UNL     1      -1.106   3.792  -4.043  1.00  0.00    -0.316 OA  
ATOM     31  O3  UNL     1       1.062   4.184  -3.062  1.00  0.00    -0.316 OA  
ATOM     32  C19 UNL     1      -0.001   4.709  -3.890  1.00  0.00     0.337 C   
ENDBRANCH  23  24
ENDBRANCH  20  23
ENDBRANCH  19  20
BRANCH  19  33
ATOM     33  C20 UNL     1      -3.582  -0.011   0.630  1.00  0.00     0.037 C   
ATOM     34  C21 UNL     1      -4.585  -1.167   0.736  1.00  0.00     0.014 C   
ATOM     35  C22 UNL     1      -3.352   0.610   2.017  1.00  0.00     0.014 C   
ENDBRANCH  19  33
ENDBRANCH   3  19
TORSDOF 10
