REMARK SMILES CCc1ccc([C@H](CO)n2cc([C@@H]([NH2+]Cc3ccc4c(c3)OCO4)C(C)C)nn2)cc1
REMARK SMILES IDX 10 1 11 2 12 3 28 4 29 5 7 7 6 8 3 9 4 10 31 11 5 12 30 13
REMARK SMILES IDX 2 14 1 15 8 16 9 17 13 19 14 20 15 23 16 24 17 25 21 26
REMARK SMILES IDX 18 27 20 28 19 29 22 30 24 31 23 32 25 33 26 34 27 35
REMARK H PARENT 11 6 9 18 14 21 14 22
ROOT
ATOM     1   N1  UNL     1       0.446   2.384  -1.806  1.00  0.00    -0.202 N   
ATOM     2   C9  UNL     1       1.616   2.042  -1.177  1.00  0.00     0.046 A   
ATOM     3   C10 UNL     1       1.633   0.667  -1.227  1.00  0.00     0.127 A   
ATOM     4   N3  UNL     1       0.495   0.223  -1.847  1.00  0.00    -0.132 NA  
ATOM     5   N4  UNL     1      -0.219   1.277  -2.202  1.00  0.00    -0.075 NA  
ATOM     6   H12 UNL     1       2.299   2.785  -0.790  1.00  0.00     0.083 HD  
ENDROOT
BRANCH   1   7
ATOM     7   C7  UNL     1      -0.061   3.733  -2.076  1.00  0.00     0.155 C   
BRANCH   7   8
ATOM     8   C6  UNL     1      -1.381   3.969  -1.361  1.00  0.00    -0.023 A   
ATOM     9   C3  UNL     1      -3.813   4.434   0.004  1.00  0.00    -0.048 A   
ATOM     10  C4  UNL     1      -3.795   3.700  -1.186  1.00  0.00     0.004 A   
ATOM     11  C24 UNL     1      -2.606   4.924   0.514  1.00  0.00     0.004 A   
ATOM     12  C5  UNL     1      -2.594   3.470  -1.861  1.00  0.00     0.006 A   
ATOM     13  C23 UNL     1      -1.403   4.694  -0.158  1.00  0.00     0.006 A   
BRANCH   9  14
ATOM     14  C2  UNL     1      -5.112   4.674   0.734  1.00  0.00     0.032 C   
ATOM     15  C1  UNL     1      -5.271   3.759   1.940  1.00  0.00     0.009 C   
ENDBRANCH   9  14
ENDBRANCH   7   8
BRANCH   7  16
ATOM     16  C8  UNL     1      -0.102   4.022  -3.587  1.00  0.00     0.185 C   
BRANCH  16  17
ATOM     17  O1  UNL     1       1.230   4.169  -4.091  1.00  0.00    -0.394 OA  
ATOM     18  H11 UNL     1       1.148   4.416  -5.031  1.00  0.00     0.210 HD  
ENDBRANCH  16  17
ENDBRANCH   7  16
ENDBRANCH   1   7
BRANCH   3  19
ATOM     19  C11 UNL     1       2.624  -0.327  -0.711  1.00  0.00     0.117 C   
BRANCH  19  20
ATOM     20  N2  UNL     1       1.930  -1.615  -0.359  1.00  0.00     0.249 N   
ATOM     21  H14 UNL     1       1.267  -1.810  -1.125  1.00  0.00     0.199 HD  
ATOM     22  H15 UNL     1       2.575  -2.409  -0.328  1.00  0.00     0.199 HD  
BRANCH  20  23
ATOM     23  C12 UNL     1       1.143  -1.576   0.905  1.00  0.00     0.164 C   
BRANCH  23  24
ATOM     24  C13 UNL     1       0.394  -2.862   1.106  1.00  0.00    -0.002 A   
ATOM     25  C14 UNL     1      -0.912  -3.013   0.579  1.00  0.00     0.012 A   
ATOM     26  C18 UNL     1       0.999  -3.935   1.782  1.00  0.00     0.045 A   
ATOM     27  C15 UNL     1      -1.618  -4.211   0.741  1.00  0.00     0.037 A   
ATOM     28  C17 UNL     1       0.275  -5.102   1.925  1.00  0.00     0.109 A   
ATOM     29  C16 UNL     1      -0.997  -5.236   1.421  1.00  0.00     0.108 A   
ATOM     30  O2  UNL     1       0.704  -6.223   2.561  1.00  0.00    -0.316 OA  
ATOM     31  O3  UNL     1      -1.529  -6.459   1.678  1.00  0.00    -0.316 OA  
ATOM     32  C19 UNL     1      -0.460  -7.072   2.433  1.00  0.00     0.337 C   
ENDBRANCH  23  24
ENDBRANCH  20  23
ENDBRANCH  19  20
BRANCH  19  33
ATOM     33  C20 UNL     1       3.772  -0.587  -1.720  1.00  0.00     0.037 C   
ATOM     34  C21 UNL     1       4.941  -1.336  -1.066  1.00  0.00     0.014 C   
ATOM     35  C22 UNL     1       3.335  -1.325  -2.991  1.00  0.00     0.014 C   
ENDBRANCH  19  33
ENDBRANCH   3  19
TORSDOF 10
