REMARK SMILES Cc1cccc(CCn2cc([C@@H]([NH2+]Cc3ccc4c(c3)OCO4)C(C)(C)C)nn2)c1F
REMARK SMILES IDX 9 1 10 2 11 3 28 4 29 5 8 7 7 8 6 9 2 10 3 11 30 12 4 13
REMARK SMILES IDX 5 14 1 15 31 16 12 17 13 18 14 21 15 22 16 23 20 24 17 25
REMARK SMILES IDX 19 26 18 27 21 28 23 29 22 30 24 31 25 32 26 33 27 34
REMARK H PARENT 10 6 13 19 13 20
ROOT
ATOM     1   N1  UNL     1      -2.904  -2.494  -0.510  1.00  0.00    -0.212 N   
ATOM     2   C9  UNL     1      -2.468  -1.641   0.463  1.00  0.00     0.045 A   
ATOM     3   C10 UNL     1      -2.341  -0.435  -0.191  1.00  0.00     0.127 A   
ATOM     4   N3  UNL     1      -2.742  -0.585  -1.495  1.00  0.00    -0.132 NA  
ATOM     5   N4  UNL     1      -3.086  -1.848  -1.676  1.00  0.00    -0.076 NA  
ATOM     6   H11 UNL     1      -2.240  -1.973   1.466  1.00  0.00     0.083 HD  
ENDROOT
BRANCH   1   7
ATOM     7   C8  UNL     1      -3.084  -3.929  -0.431  1.00  0.00     0.139 C   
BRANCH   7   8
ATOM     8   C7  UNL     1      -1.846  -4.703  -0.889  1.00  0.00     0.060 C   
BRANCH   8   9
ATOM     9   C6  UNL     1      -0.717  -4.667   0.114  1.00  0.00    -0.010 A   
ATOM     10  C2  UNL     1       1.353  -3.665   0.949  1.00  0.00    -0.015 A   
ATOM     11  C3  UNL     1       1.375  -4.601   1.988  1.00  0.00     0.006 A   
ATOM     12  C24 UNL     1       0.305  -3.713   0.023  1.00  0.00     0.129 A   
ATOM     13  C4  UNL     1       0.361  -5.555   2.098  1.00  0.00     0.001 A   
ATOM     14  C5  UNL     1      -0.680  -5.589   1.168  1.00  0.00     0.007 A   
ATOM     15  C1  UNL     1       2.445  -2.649   0.802  1.00  0.00     0.047 C   
ATOM     16  F1  UNL     1       0.270  -2.799  -0.960  1.00  0.00    -0.206 F   
ENDBRANCH   8   9
ENDBRANCH   7   8
ENDBRANCH   1   7
BRANCH   3  17
ATOM     17  C11 UNL     1      -1.753   0.869   0.250  1.00  0.00     0.120 C   
BRANCH  17  18
ATOM     18  N2  UNL     1      -0.937   1.437  -0.888  1.00  0.00     0.250 N   
ATOM     19  H13 UNL     1      -0.696   2.420  -0.743  1.00  0.00     0.199 HD  
ATOM     20  H14 UNL     1      -1.533   1.401  -1.728  1.00  0.00     0.199 HD  
BRANCH  18  21
ATOM     21  C12 UNL     1       0.309   0.683  -1.216  1.00  0.00     0.164 C   
BRANCH  21  22
ATOM     22  C13 UNL     1       1.064   1.379  -2.313  1.00  0.00    -0.002 A   
ATOM     23  C14 UNL     1       0.750   1.119  -3.668  1.00  0.00     0.012 A   
ATOM     24  C18 UNL     1       2.043   2.337  -2.000  1.00  0.00     0.045 A   
ATOM     25  C15 UNL     1       1.408   1.794  -4.701  1.00  0.00     0.037 A   
ATOM     26  C17 UNL     1       2.674   2.984  -3.042  1.00  0.00     0.109 A   
ATOM     27  C16 UNL     1       2.365   2.723  -4.354  1.00  0.00     0.108 A   
ATOM     28  O1  UNL     1       3.640   3.931  -2.914  1.00  0.00    -0.316 OA  
ATOM     29  O2  UNL     1       3.098   3.472  -5.218  1.00  0.00    -0.316 OA  
ATOM     30  C19 UNL     1       3.921   4.225  -4.302  1.00  0.00     0.337 C   
ENDBRANCH  21  22
ENDBRANCH  18  21
ENDBRANCH  17  18
BRANCH  17  31
ATOM     31  C20 UNL     1      -2.806   1.917   0.749  1.00  0.00     0.010 C   
ATOM     32  C21 UNL     1      -2.093   3.172   1.304  1.00  0.00     0.017 C   
ATOM     33  C22 UNL     1      -3.777   2.366  -0.361  1.00  0.00     0.017 C   
ATOM     34  C23 UNL     1      -3.636   1.321   1.909  1.00  0.00     0.017 C   
ENDBRANCH  17  31
ENDBRANCH   3  17
TORSDOF 8
