REMARK SMILES CC(C)[C@H]([NH2+]Cc1ccc2c(c1)OCO2)c1cn(CCc2c[nH]c3ncccc23)nn1
REMARK SMILES IDX 16 1 17 2 18 3 30 4 31 5 4 7 2 8 1 9 3 10 5 11 6 14 7 15
REMARK SMILES IDX 8 16 12 17 9 18 11 19 10 20 13 21 15 22 14 23 19 24 20 25
REMARK SMILES IDX 21 26 22 27 29 28 23 29 24 30 28 31 25 32 27 33 26 34
REMARK H PARENT 17 6 5 12 5 13 23 35
ROOT
ATOM     1   C13 UNL     1       0.104  -1.915   0.588  1.00  0.00     0.127 A   
ATOM     2   C14 UNL     1      -1.185  -2.388   0.469  1.00  0.00     0.045 A   
ATOM     3   N2  UNL     1      -1.402  -3.041   1.651  1.00  0.00    -0.212 N   
ATOM     4   N5  UNL     1      -0.275  -3.097   2.383  1.00  0.00    -0.076 NA  
ATOM     5   N6  UNL     1       0.643  -2.373   1.761  1.00  0.00    -0.132 NA  
ATOM     6   H18 UNL     1      -1.972  -2.220  -0.253  1.00  0.00     0.083 HD  
ENDROOT
BRANCH   1   7
ATOM     7   C4  UNL     1       0.830  -0.910  -0.249  1.00  0.00     0.117 C   
BRANCH   7   8
ATOM     8   C2  UNL     1       2.165  -1.414  -0.855  1.00  0.00     0.037 C   
ATOM     9   C1  UNL     1       1.936  -2.630  -1.763  1.00  0.00     0.014 C   
ATOM     10  C3  UNL     1       3.268  -1.729   0.160  1.00  0.00     0.014 C   
ENDBRANCH   7   8
BRANCH   7  11
ATOM     11  N1  UNL     1       1.027   0.330   0.589  1.00  0.00     0.249 N   
ATOM     12  H9  UNL     1       1.601   0.075   1.402  1.00  0.00     0.199 HD  
ATOM     13  H10 UNL     1       0.116   0.564   1.015  1.00  0.00     0.199 HD  
BRANCH  11  14
ATOM     14  C5  UNL     1       1.537   1.563  -0.062  1.00  0.00     0.164 C   
BRANCH  14  15
ATOM     15  C6  UNL     1       0.666   2.050  -1.188  1.00  0.00    -0.002 A   
ATOM     16  C7  UNL     1       1.084   1.911  -2.533  1.00  0.00     0.012 A   
ATOM     17  C11 UNL     1      -0.592   2.616  -0.915  1.00  0.00     0.045 A   
ATOM     18  C8  UNL     1       0.260   2.316  -3.590  1.00  0.00     0.037 A   
ATOM     19  C10 UNL     1      -1.383   2.998  -1.978  1.00  0.00     0.109 A   
ATOM     20  C9  UNL     1      -0.969   2.853  -3.278  1.00  0.00     0.108 A   
ATOM     21  O1  UNL     1      -2.625   3.541  -1.884  1.00  0.00    -0.316 OA  
ATOM     22  O2  UNL     1      -1.896   3.291  -4.168  1.00  0.00    -0.316 OA  
ATOM     23  C12 UNL     1      -2.928   3.770  -3.280  1.00  0.00     0.337 C   
ENDBRANCH  14  15
ENDBRANCH  11  14
ENDBRANCH   7  11
ENDBRANCH   1   7
BRANCH   3  24
ATOM     24  C15 UNL     1      -2.687  -3.365   2.239  1.00  0.00     0.139 C   
BRANCH  24  25
ATOM     25  C16 UNL     1      -3.114  -2.364   3.323  1.00  0.00     0.059 C   
BRANCH  25  26
ATOM     26  C17 UNL     1      -2.916  -0.929   2.916  1.00  0.00    -0.022 A   
ATOM     27  C18 UNL     1      -3.689  -0.196   2.032  1.00  0.00     0.077 A   
ATOM     28  C23 UNL     1      -1.841  -0.077   3.326  1.00  0.00     0.019 A   
ATOM     29  N3  UNL     1      -3.107   1.037   1.868  1.00  0.00    -0.305 N   
ATOM     30  C19 UNL     1      -1.953   1.103   2.601  1.00  0.00     0.129 A   
ATOM     31  C22 UNL     1      -0.748  -0.184   4.205  1.00  0.00     0.013 A   
ATOM     32  N4  UNL     1      -1.093   2.140   2.597  1.00  0.00    -0.241 NA  
ATOM     33  C21 UNL     1       0.108   0.910   4.322  1.00  0.00     0.021 A   
ATOM     34  C20 UNL     1      -0.116   2.023   3.528  1.00  0.00     0.113 A   
ATOM     35  H24 UNL     1      -3.463   1.794   1.300  1.00  0.00     0.154 HD  
ENDBRANCH  25  26
ENDBRANCH  24  25
ENDBRANCH   3  24
TORSDOF 8
