REMARK SMILES COc1ccc(C)cc1CCn1cc([C@@H]([NH2+]Cc2ccc3c(c2)OCO3)C(C)C)nn1
REMARK SMILES IDX 12 1 13 2 14 3 30 4 31 5 11 7 10 8 9 9 3 10 4 11 5 12 8 13
REMARK SMILES IDX 6 14 7 15 2 16 1 17 15 18 16 19 17 22 18 23 19 24 23 25
REMARK SMILES IDX 20 26 22 27 21 28 24 29 26 30 25 31 27 32 28 33 29 34
REMARK H PARENT 13 6 16 20 16 21
ROOT
ATOM     1   N1  UNL     1      -1.313   2.184   1.186  1.00  0.00    -0.212 N   
ATOM     2   C11 UNL     1      -0.867   0.982   1.654  1.00  0.00     0.045 A   
ATOM     3   C12 UNL     1       0.356   0.825   1.043  1.00  0.00     0.127 A   
ATOM     4   N3  UNL     1       0.621   1.926   0.270  1.00  0.00    -0.132 NA  
ATOM     5   N4  UNL     1      -0.400   2.761   0.382  1.00  0.00    -0.076 NA  
ATOM     6   H14 UNL     1      -1.471   0.349   2.291  1.00  0.00     0.083 HD  
ENDROOT
BRANCH   1   7
ATOM     7   C10 UNL     1      -2.623   2.772   1.369  1.00  0.00     0.139 C   
BRANCH   7   8
ATOM     8   C9  UNL     1      -3.475   2.745   0.097  1.00  0.00     0.059 C   
BRANCH   8   9
ATOM     9   C8  UNL     1      -3.560   1.398  -0.598  1.00  0.00    -0.016 A   
ATOM     10  C2  UNL     1      -4.161   0.282   0.008  1.00  0.00     0.078 A   
ATOM     11  C3  UNL     1      -4.222  -0.934  -0.682  1.00  0.00     0.034 A   
ATOM     12  C4  UNL     1      -3.711  -1.042  -1.980  1.00  0.00     0.006 A   
ATOM     13  C7  UNL     1      -3.049   1.274  -1.904  1.00  0.00     0.010 A   
ATOM     14  C5  UNL     1      -3.115   0.059  -2.598  1.00  0.00    -0.051 A   
ATOM     15  C6  UNL     1      -2.630  -0.031  -4.018  1.00  0.00     0.044 C   
BRANCH  10  16
ATOM     16  O1  UNL     1      -4.628   0.462   1.283  1.00  0.00    -0.349 OA  
ATOM     17  C1  UNL     1      -5.677  -0.410   1.695  1.00  0.00     0.203 C   
ENDBRANCH  10  16
ENDBRANCH   8   9
ENDBRANCH   7   8
ENDBRANCH   1   7
BRANCH   3  18
ATOM     18  C13 UNL     1       1.269  -0.353   0.990  1.00  0.00     0.117 C   
BRANCH  18  19
ATOM     19  N2  UNL     1       1.661  -0.620  -0.441  1.00  0.00     0.249 N   
ATOM     20  H16 UNL     1       2.473  -1.243  -0.498  1.00  0.00     0.199 HD  
ATOM     21  H17 UNL     1       1.949   0.283  -0.848  1.00  0.00     0.199 HD  
BRANCH  19  22
ATOM     22  C14 UNL     1       0.560  -1.156  -1.294  1.00  0.00     0.164 C   
BRANCH  22  23
ATOM     23  C15 UNL     1       1.036  -1.387  -2.699  1.00  0.00    -0.002 A   
ATOM     24  C16 UNL     1       1.428  -2.680  -3.121  1.00  0.00     0.012 A   
ATOM     25  C20 UNL     1       1.126  -0.308  -3.597  1.00  0.00     0.045 A   
ATOM     26  C17 UNL     1       1.889  -2.902  -4.424  1.00  0.00     0.037 A   
ATOM     27  C19 UNL     1       1.581  -0.562  -4.874  1.00  0.00     0.109 A   
ATOM     28  C18 UNL     1       1.952  -1.822  -5.277  1.00  0.00     0.108 A   
ATOM     29  O2  UNL     1       1.713   0.359  -5.864  1.00  0.00    -0.316 OA  
ATOM     30  O3  UNL     1       2.363  -1.854  -6.572  1.00  0.00    -0.316 OA  
ATOM     31  C21 UNL     1       2.201  -0.469  -6.947  1.00  0.00     0.337 C   
ENDBRANCH  22  23
ENDBRANCH  19  22
ENDBRANCH  18  19
BRANCH  18  32
ATOM     32  C22 UNL     1       2.547  -0.227   1.853  1.00  0.00     0.037 C   
ATOM     33  C23 UNL     1       3.494   0.903   1.437  1.00  0.00     0.014 C   
ATOM     34  C24 UNL     1       2.206  -0.092   3.342  1.00  0.00     0.014 C   
ENDBRANCH  18  32
ENDBRANCH   3  18
TORSDOF 9
