REMARK SMILES c1nc(Cn2cc([C@@H]([NH2+]Cc3ccc4c(c3)OCO4)C3CCCC3)nn2)c(C2CCC2)o1
REMARK SMILES IDX 5 1 6 2 7 3 25 4 26 5 4 7 3 8 1 9 2 10 32 11 27 12 28 13
REMARK SMILES IDX 29 14 31 15 30 16 8 17 9 18 10 21 11 22 12 23 16 24 13 25
REMARK SMILES IDX 15 26 14 27 17 28 19 29 18 30 20 31 21 32 24 33 22 34 23 35
REMARK H PARENT 6 6 9 19 9 20
ROOT
ATOM     1   N2  UNL     1      -1.165  -0.051   1.798  1.00  0.00    -0.206 N   
ATOM     2   C4  UNL     1      -0.341   0.744   1.047  1.00  0.00     0.046 A   
ATOM     3   C5  UNL     1      -0.888   0.691  -0.214  1.00  0.00     0.127 A   
ATOM     4   N4  UNL     1      -2.005  -0.108  -0.189  1.00  0.00    -0.132 NA  
ATOM     5   N5  UNL     1      -2.171  -0.547   1.047  1.00  0.00    -0.076 NA  
ATOM     6   H4  UNL     1       0.537   1.219   1.464  1.00  0.00     0.083 HD  
ENDROOT
BRANCH   1   7
ATOM     7   C3  UNL     1      -1.067  -0.370   3.210  1.00  0.00     0.192 C   
BRANCH   7   8
ATOM     8   C2  UNL     1      -0.187  -1.548   3.401  1.00  0.00     0.089 A   
ATOM     9   C1  UNL     1       1.609  -2.618   3.753  1.00  0.00     0.247 A   
ATOM     10  N1  UNL     1       1.167  -1.387   3.626  1.00  0.00    -0.232 NA  
ATOM     11  O3  UNL     1       0.666  -3.585   3.616  1.00  0.00    -0.301 OA  
ATOM     12  C20 UNL     1      -0.492  -2.896   3.396  1.00  0.00     0.087 A   
BRANCH  12  13
ATOM     13  C21 UNL     1      -1.882  -3.542   3.167  1.00  0.00     0.045 C   
ATOM     14  C22 UNL     1      -1.955  -5.069   3.421  1.00  0.00     0.010 C   
ATOM     15  C24 UNL     1      -2.877  -3.390   4.344  1.00  0.00     0.010 C   
ATOM     16  C23 UNL     1      -3.350  -4.824   4.030  1.00  0.00     0.001 C   
ENDBRANCH  12  13
ENDBRANCH   7   8
ENDBRANCH   1   7
BRANCH   3  17
ATOM     17  C6  UNL     1      -0.442   1.266  -1.518  1.00  0.00     0.117 C   
BRANCH  17  18
ATOM     18  N3  UNL     1      -0.722   0.266  -2.621  1.00  0.00     0.249 N   
ATOM     19  H6  UNL     1      -1.442  -0.371  -2.243  1.00  0.00     0.199 HD  
ATOM     20  H7  UNL     1      -1.160   0.721  -3.427  1.00  0.00     0.199 HD  
BRANCH  18  21
ATOM     21  C7  UNL     1       0.430  -0.550  -3.092  1.00  0.00     0.164 C   
BRANCH  21  22
ATOM     22  C8  UNL     1       1.157  -1.300  -2.010  1.00  0.00    -0.002 A   
ATOM     23  C9  UNL     1       0.529  -2.357  -1.309  1.00  0.00     0.012 A   
ATOM     24  C13 UNL     1       2.475  -0.941  -1.677  1.00  0.00     0.045 A   
ATOM     25  C10 UNL     1       1.198  -3.041  -0.287  1.00  0.00     0.037 A   
ATOM     26  C12 UNL     1       3.106  -1.636  -0.666  1.00  0.00     0.109 A   
ATOM     27  C11 UNL     1       2.487  -2.658   0.009  1.00  0.00     0.108 A   
ATOM     28  O1  UNL     1       4.371  -1.409  -0.226  1.00  0.00    -0.316 OA  
ATOM     29  O2  UNL     1       3.288  -3.209   0.958  1.00  0.00    -0.316 OA  
ATOM     30  C14 UNL     1       4.489  -2.425   0.795  1.00  0.00     0.337 C   
ENDBRANCH  21  22
ENDBRANCH  18  21
ENDBRANCH  17  18
BRANCH  17  31
ATOM     31  C15 UNL     1      -1.132   2.611  -1.820  1.00  0.00     0.043 C   
ATOM     32  C16 UNL     1      -0.601   3.321  -3.081  1.00  0.00     0.010 C   
ATOM     33  C19 UNL     1      -2.656   2.563  -2.003  1.00  0.00     0.010 C   
ATOM     34  C17 UNL     1      -1.827   3.856  -3.820  1.00  0.00     0.001 C   
ATOM     35  C18 UNL     1      -2.952   3.824  -2.799  1.00  0.00     0.001 C   
ENDBRANCH  17  31
ENDBRANCH   3  17
TORSDOF 8
