REMARK SMILES Cc1ccc(Cn2cc([C@H](CC(C)C)[NH2+]Cc3ccc4c(c3)OCO4)nn2)c(O)c1
REMARK SMILES IDX 7 1 8 2 9 3 26 4 27 5 6 7 5 8 2 9 3 10 30 11 4 12 28 13 1 14
REMARK SMILES IDX 29 15 10 17 11 18 12 19 13 20 14 21 15 22 16 25 17 26 18 27
REMARK SMILES IDX 22 28 19 29 21 30 20 31 23 32 25 33 24 34
REMARK H PARENT 8 6 29 16 15 23 15 24
ROOT
ATOM     1   N1  UNL     1      -0.681  -0.037   1.957  1.00  0.00    -0.208 N   
ATOM     2   C7  UNL     1      -0.915   1.136   1.292  1.00  0.00     0.046 A   
ATOM     3   C8  UNL     1      -1.214   0.747   0.006  1.00  0.00     0.127 A   
ATOM     4   N3  UNL     1      -1.145  -0.621  -0.073  1.00  0.00    -0.132 NA  
ATOM     5   N4  UNL     1      -0.823  -1.086   1.125  1.00  0.00    -0.076 NA  
ATOM     6   H8  UNL     1      -0.856   2.095   1.787  1.00  0.00     0.083 HD  
ENDROOT
BRANCH   1   7
ATOM     7   C6  UNL     1      -0.408  -0.242   3.370  1.00  0.00     0.172 C   
BRANCH   7   8
ATOM     8   C5  UNL     1       0.984   0.201   3.741  1.00  0.00     0.001 A   
ATOM     9   C2  UNL     1       3.589   1.007   4.466  1.00  0.00    -0.049 A   
ATOM     10  C3  UNL     1       3.328  -0.326   4.113  1.00  0.00     0.004 A   
ATOM     11  C23 UNL     1       2.537   1.928   4.483  1.00  0.00     0.037 A   
ATOM     12  C4  UNL     1       2.041  -0.717   3.736  1.00  0.00     0.008 A   
ATOM     13  C22 UNL     1       1.251   1.517   4.135  1.00  0.00     0.076 A   
ATOM     14  C1  UNL     1       4.972   1.414   4.889  1.00  0.00     0.044 C   
BRANCH  13  15
ATOM     15  O3  UNL     1       0.218   2.408   4.220  1.00  0.00    -0.361 OA  
ATOM     16  H28 UNL     1       0.377   2.951   5.029  1.00  0.00     0.218 HD  
ENDBRANCH  13  15
ENDBRANCH   7   8
ENDBRANCH   1   7
BRANCH   3  17
ATOM     17  C9  UNL     1      -1.547   1.542  -1.214  1.00  0.00     0.114 C   
BRANCH  17  18
ATOM     18  C10 UNL     1      -3.042   1.905  -1.307  1.00  0.00     0.064 C   
BRANCH  18  19
ATOM     19  C11 UNL     1      -3.566   2.855  -0.209  1.00  0.00    -0.012 C   
ATOM     20  C12 UNL     1      -2.844   4.204  -0.205  1.00  0.00     0.007 C   
ATOM     21  C13 UNL     1      -5.069   3.077  -0.403  1.00  0.00     0.007 C   
ENDBRANCH  18  19
ENDBRANCH  17  18
BRANCH  17  22
ATOM     22  N2  UNL     1      -1.211   0.738  -2.449  1.00  0.00     0.249 N   
ATOM     23  H19 UNL     1      -1.725   1.070  -3.272  1.00  0.00     0.199 HD  
ATOM     24  H20 UNL     1      -1.537  -0.225  -2.270  1.00  0.00     0.199 HD  
BRANCH  22  25
ATOM     25  C14 UNL     1       0.240   0.658  -2.772  1.00  0.00     0.164 C   
BRANCH  25  26
ATOM     26  C15 UNL     1       0.459  -0.215  -3.975  1.00  0.00    -0.002 A   
ATOM     27  C16 UNL     1       0.541  -1.620  -3.833  1.00  0.00     0.012 A   
ATOM     28  C20 UNL     1       0.542   0.356  -5.253  1.00  0.00     0.045 A   
ATOM     29  C17 UNL     1       0.714  -2.444  -4.951  1.00  0.00     0.037 A   
ATOM     30  C19 UNL     1       0.713  -0.485  -6.334  1.00  0.00     0.109 A   
ATOM     31  C18 UNL     1       0.794  -1.847  -6.188  1.00  0.00     0.108 A   
ATOM     32  O1  UNL     1       0.830  -0.089  -7.630  1.00  0.00    -0.316 OA  
ATOM     33  O2  UNL     1       0.964  -2.488  -7.371  1.00  0.00    -0.316 OA  
ATOM     34  C21 UNL     1       1.022  -1.365  -8.284  1.00  0.00     0.337 C   
ENDBRANCH  25  26
ENDBRANCH  22  25
ENDBRANCH  17  22
ENDBRANCH   3  17
TORSDOF 9
