REMARK SMILES O[C@@H](Cn1cc([C@@H]([NH2+]Cc2ccc3c(c2)OCO3)C2CCCC2)nn1)c1ccco1
REMARK SMILES IDX 4 1 5 2 6 3 24 4 25 5 3 7 2 8 1 9 26 11 27 12 30 13 28 14
REMARK SMILES IDX 29 15 7 16 8 17 9 20 10 21 11 22 15 23 12 24 14 25 13 26
REMARK SMILES IDX 16 27 18 28 17 29 19 30 20 31 23 32 21 33 22 34
REMARK H PARENT 5 6 1 10 8 18 8 19
ROOT
ATOM     1   N1  UNL     1       1.029   1.502   2.291  1.00  0.00    -0.209 N   
ATOM     2   C3  UNL     1       0.268   1.681   1.170  1.00  0.00     0.045 A   
ATOM     3   C4  UNL     1      -0.520   0.554   1.121  1.00  0.00     0.127 A   
ATOM     4   N3  UNL     1      -0.249  -0.233   2.212  1.00  0.00    -0.132 NA  
ATOM     5   N4  UNL     1       0.694   0.362   2.923  1.00  0.00    -0.076 NA  
ATOM     6   H5  UNL     1       0.399   2.530   0.513  1.00  0.00     0.083 HD  
ENDROOT
BRANCH   1   7
ATOM     7   C2  UNL     1       2.095   2.342   2.796  1.00  0.00     0.172 C   
BRANCH   7   8
ATOM     8   C1  UNL     1       3.358   2.305   1.935  1.00  0.00     0.187 C   
BRANCH   8   9
ATOM     9   O1  UNL     1       3.104   2.938   0.674  1.00  0.00    -0.385 OA  
ATOM     10  H1  UNL     1       3.821   2.650   0.075  1.00  0.00     0.211 HD  
ENDBRANCH   8   9
BRANCH   8  11
ATOM     11  C19 UNL     1       3.884   0.928   1.687  1.00  0.00     0.089 A   
ATOM     12  C20 UNL     1       4.421  -0.040   2.512  1.00  0.00     0.034 A   
ATOM     13  O4  UNL     1       3.887   0.482   0.393  1.00  0.00    -0.320 OA  
ATOM     14  C21 UNL     1       4.776  -1.128   1.678  1.00  0.00     0.028 A   
ATOM     15  C22 UNL     1       4.439  -0.758   0.398  1.00  0.00     0.136 A   
ENDBRANCH   8  11
ENDBRANCH   7   8
ENDBRANCH   1   7
BRANCH   3  16
ATOM     16  C5  UNL     1      -1.452   0.064   0.067  1.00  0.00     0.117 C   
BRANCH  16  17
ATOM     17  N2  UNL     1      -1.285  -1.432  -0.116  1.00  0.00     0.249 N   
ATOM     18  H7  UNL     1      -2.024  -1.797  -0.723  1.00  0.00     0.199 HD  
ATOM     19  H8  UNL     1      -1.411  -1.849   0.817  1.00  0.00     0.199 HD  
BRANCH  17  20
ATOM     20  C6  UNL     1       0.045  -1.893  -0.619  1.00  0.00     0.164 C   
BRANCH  20  21
ATOM     21  C7  UNL     1       0.346  -1.424  -2.015  1.00  0.00    -0.002 A   
ATOM     22  C8  UNL     1      -0.306  -2.010  -3.127  1.00  0.00     0.012 A   
ATOM     23  C12 UNL     1       1.258  -0.374  -2.222  1.00  0.00     0.045 A   
ATOM     24  C9  UNL     1      -0.056  -1.557  -4.426  1.00  0.00     0.037 A   
ATOM     25  C11 UNL     1       1.481   0.049  -3.515  1.00  0.00     0.109 A   
ATOM     26  C10 UNL     1       0.841  -0.524  -4.587  1.00  0.00     0.108 A   
ATOM     27  O2  UNL     1       2.322   1.049  -3.887  1.00  0.00    -0.316 OA  
ATOM     28  O3  UNL     1       1.199   0.043  -5.768  1.00  0.00    -0.316 OA  
ATOM     29  C13 UNL     1       2.157   1.028  -5.323  1.00  0.00     0.337 C   
ENDBRANCH  20  21
ENDBRANCH  17  20
ENDBRANCH  16  17
BRANCH  16  30
ATOM     30  C14 UNL     1      -2.943   0.341   0.336  1.00  0.00     0.043 C   
ATOM     31  C15 UNL     1      -3.305   1.821   0.474  1.00  0.00     0.010 C   
ATOM     32  C18 UNL     1      -3.538  -0.253   1.614  1.00  0.00     0.010 C   
ATOM     33  C16 UNL     1      -4.728   1.799   1.023  1.00  0.00     0.001 C   
ATOM     34  C17 UNL     1      -4.870   0.476   1.776  1.00  0.00     0.001 C   
ENDBRANCH  16  30
ENDBRANCH   3  16
TORSDOF 9
