REMARK SMILES O[C@H](Cn1cc([C@@H]([NH2+]Cc2ccc3c(c2)OCO3)C2CCCC2)nn1)c1ccco1
REMARK SMILES IDX 4 1 5 2 6 3 24 4 25 5 3 7 2 8 1 9 26 11 27 12 30 13 28 14
REMARK SMILES IDX 29 15 7 16 8 17 9 20 10 21 11 22 15 23 12 24 14 25 13 26
REMARK SMILES IDX 16 27 18 28 17 29 19 30 20 31 23 32 21 33 22 34
REMARK H PARENT 5 6 1 10 8 18 8 19
ROOT
ATOM     1   N1  UNL     1       0.761  -2.019  -0.099  1.00  0.00    -0.209 N   
ATOM     2   C3  UNL     1       0.783  -0.695  -0.430  1.00  0.00     0.045 A   
ATOM     3   C4  UNL     1       0.584  -0.051   0.771  1.00  0.00     0.127 A   
ATOM     4   N3  UNL     1       0.470  -0.985   1.769  1.00  0.00    -0.132 NA  
ATOM     5   N4  UNL     1       0.576  -2.186   1.223  1.00  0.00    -0.076 NA  
ATOM     6   H5  UNL     1       0.896  -0.354  -1.450  1.00  0.00     0.083 HD  
ENDROOT
BRANCH   1   7
ATOM     7   C2  UNL     1       0.855  -3.165  -0.982  1.00  0.00     0.172 C   
BRANCH   7   8
ATOM     8   C1  UNL     1      -0.533  -3.676  -1.357  1.00  0.00     0.187 C   
BRANCH   8   9
ATOM     9   O1  UNL     1      -1.191  -2.717  -2.201  1.00  0.00    -0.385 OA  
ATOM     10  H1  UNL     1      -1.175  -3.084  -3.109  1.00  0.00     0.211 HD  
ENDBRANCH   8   9
BRANCH   8  11
ATOM     11  C19 UNL     1      -0.449  -4.958  -2.109  1.00  0.00     0.089 A   
ATOM     12  C20 UNL     1      -0.665  -6.277  -1.770  1.00  0.00     0.034 A   
ATOM     13  O4  UNL     1      -0.091  -4.865  -3.424  1.00  0.00    -0.320 OA  
ATOM     14  C21 UNL     1      -0.422  -7.033  -2.943  1.00  0.00     0.028 A   
ATOM     15  C22 UNL     1      -0.077  -6.129  -3.920  1.00  0.00     0.136 A   
ENDBRANCH   8  11
ENDBRANCH   7   8
ENDBRANCH   1   7
BRANCH   3  16
ATOM     16  C5  UNL     1       0.415   1.397   1.089  1.00  0.00     0.117 C   
BRANCH  16  17
ATOM     17  N2  UNL     1      -0.609   1.570   2.186  1.00  0.00     0.249 N   
ATOM     18  H7  UNL     1      -0.337   0.922   2.938  1.00  0.00     0.199 HD  
ATOM     19  H8  UNL     1      -0.577   2.516   2.572  1.00  0.00     0.199 HD  
BRANCH  17  20
ATOM     20  C6  UNL     1      -2.021   1.239   1.824  1.00  0.00     0.164 C   
BRANCH  20  21
ATOM     21  C7  UNL     1      -2.591   2.155   0.776  1.00  0.00    -0.002 A   
ATOM     22  C8  UNL     1      -2.830   1.673  -0.534  1.00  0.00     0.012 A   
ATOM     23  C12 UNL     1      -2.860   3.501   1.079  1.00  0.00     0.045 A   
ATOM     24  C9  UNL     1      -3.324   2.520  -1.532  1.00  0.00     0.037 A   
ATOM     25  C11 UNL     1      -3.344   4.308   0.071  1.00  0.00     0.109 A   
ATOM     26  C10 UNL     1      -3.569   3.833  -1.197  1.00  0.00     0.108 A   
ATOM     27  O2  UNL     1      -3.646   5.627   0.194  1.00  0.00    -0.316 OA  
ATOM     28  O3  UNL     1      -4.043   4.793  -2.033  1.00  0.00    -0.316 OA  
ATOM     29  C13 UNL     1      -4.119   5.925  -1.140  1.00  0.00     0.337 C   
ENDBRANCH  20  21
ENDBRANCH  17  20
ENDBRANCH  16  17
BRANCH  16  30
ATOM     30  C14 UNL     1       1.755   2.053   1.479  1.00  0.00     0.043 C   
ATOM     31  C15 UNL     1       1.718   3.583   1.555  1.00  0.00     0.010 C   
ATOM     32  C18 UNL     1       2.336   1.675   2.843  1.00  0.00     0.010 C   
ATOM     33  C16 UNL     1       2.976   3.966   2.334  1.00  0.00     0.001 C   
ATOM     34  C17 UNL     1       3.450   2.696   3.041  1.00  0.00     0.001 C   
ENDBRANCH  16  30
ENDBRANCH   3  16
TORSDOF 9
