REMARK SMILES CC(=O)c1ccc(Cn2cc([C@@H]([NH2+]Cc3ccc4c(c3)OCO4)C3CCCCC3)nn2)cc1
REMARK SMILES IDX 9 1 10 2 11 3 30 4 31 5 8 7 7 8 4 9 5 10 33 11 6 12 32 13
REMARK SMILES IDX 2 14 1 15 3 16 12 17 13 18 14 21 15 22 16 23 20 24 17 25
REMARK SMILES IDX 19 26 18 27 21 28 23 29 22 30 24 31 25 32 29 33 26 34 28 35
REMARK SMILES IDX 27 36
REMARK H PARENT 10 6 13 19 13 20
ROOT
ATOM     1   N1  UNL     1       0.013   0.379   2.734  1.00  0.00    -0.208 N   
ATOM     2   C8  UNL     1      -0.956   0.815   1.872  1.00  0.00     0.046 A   
ATOM     3   C9  UNL     1      -0.264   1.123   0.721  1.00  0.00     0.127 A   
ATOM     4   N3  UNL     1       1.075   0.908   0.932  1.00  0.00    -0.132 NA  
ATOM     5   N4  UNL     1       1.234   0.472   2.170  1.00  0.00    -0.076 NA  
ATOM     6   H8  UNL     1      -2.004   0.832   2.139  1.00  0.00     0.083 HD  
ENDROOT
BRANCH   1   7
ATOM     7   C7  UNL     1      -0.145  -0.118   4.091  1.00  0.00     0.169 C   
BRANCH   7   8
ATOM     8   C6  UNL     1      -0.677  -1.530   4.088  1.00  0.00    -0.029 A   
ATOM     9   C3  UNL     1      -1.673  -4.165   4.024  1.00  0.00     0.017 A   
ATOM     10  C4  UNL     1      -0.319  -3.919   3.777  1.00  0.00     0.012 A   
ATOM     11  C26 UNL     1      -2.526  -3.088   4.301  1.00  0.00     0.012 A   
ATOM     12  C5  UNL     1       0.174  -2.610   3.807  1.00  0.00     0.006 A   
ATOM     13  C25 UNL     1      -2.033  -1.782   4.336  1.00  0.00     0.006 A   
BRANCH   9  14
ATOM     14  C2  UNL     1      -2.254  -5.538   3.986  1.00  0.00     0.159 C   
ATOM     15  C1  UNL     1      -1.328  -6.725   3.963  1.00  0.00     0.093 C   
ATOM     16  O1  UNL     1      -3.475  -5.677   3.961  1.00  0.00    -0.295 OA  
ENDBRANCH   9  14
ENDBRANCH   7   8
ENDBRANCH   1   7
BRANCH   3  17
ATOM     17  C10 UNL     1      -0.731   1.621  -0.612  1.00  0.00     0.117 C   
BRANCH  17  18
ATOM     18  N2  UNL     1       0.413   2.237  -1.370  1.00  0.00     0.249 N   
ATOM     19  H10 UNL     1       1.227   1.619  -1.229  1.00  0.00     0.199 HD  
ATOM     20  H11 UNL     1       0.246   2.261  -2.380  1.00  0.00     0.199 HD  
BRANCH  18  21
ATOM     21  C11 UNL     1       0.818   3.596  -0.916  1.00  0.00     0.164 C   
BRANCH  21  22
ATOM     22  C12 UNL     1       2.045   4.050  -1.656  1.00  0.00    -0.002 A   
ATOM     23  C13 UNL     1       3.330   3.686  -1.187  1.00  0.00     0.012 A   
ATOM     24  C17 UNL     1       1.924   4.787  -2.846  1.00  0.00     0.045 A   
ATOM     25  C14 UNL     1       4.482   4.061  -1.885  1.00  0.00     0.037 A   
ATOM     26  C16 UNL     1       3.081   5.141  -3.510  1.00  0.00     0.109 A   
ATOM     27  C15 UNL     1       4.324   4.788  -3.044  1.00  0.00     0.108 A   
ATOM     28  O2  UNL     1       3.141   5.850  -4.667  1.00  0.00    -0.316 OA  
ATOM     29  O3  UNL     1       5.323   5.233  -3.848  1.00  0.00    -0.316 OA  
ATOM     30  C18 UNL     1       4.572   5.930  -4.865  1.00  0.00     0.337 C   
ENDBRANCH  21  22
ENDBRANCH  18  21
ENDBRANCH  17  18
BRANCH  17  31
ATOM     31  C19 UNL     1      -1.395   0.497  -1.452  1.00  0.00     0.043 C   
ATOM     32  C20 UNL     1      -0.414  -0.597  -1.918  1.00  0.00     0.010 C   
ATOM     33  C24 UNL     1      -2.170   1.066  -2.657  1.00  0.00     0.010 C   
ATOM     34  C21 UNL     1      -1.128  -1.695  -2.706  1.00  0.00     0.001 C   
ATOM     35  C23 UNL     1      -2.880  -0.037  -3.442  1.00  0.00     0.001 C   
ATOM     36  C22 UNL     1      -1.909  -1.125  -3.885  1.00  0.00     0.000 C   
ENDBRANCH  17  31
ENDBRANCH   3  17
TORSDOF 8
