REMARK SMILES Fc1ncc(-n2cc([C@@H]([NH2+]Cc3ccc4c(c3)OCO4)C3CCCC3)nn2)cc1Cl
REMARK SMILES IDX 9 1 8 2 6 3 7 4 27 5 26 6 5 7 2 8 3 9 29 10 4 11 28 12 1 13
REMARK SMILES IDX 30 14 10 15 11 18 12 19 13 20 17 21 14 22 16 23 15 24 18 25
REMARK SMILES IDX 20 26 19 27 21 28 22 29 25 30 23 31 24 32
REMARK H PARENT 10 16 10 17
ROOT
ATOM     1   C6  UNL     1      -1.057  -1.385   0.355  1.00  0.00     0.117 C   
ENDROOT
BRANCH   1   2
ATOM     2   C5  UNL     1      -0.454  -0.060   0.701  1.00  0.00     0.127 A   
ATOM     3   N2  UNL     1       0.657   1.821   0.787  1.00  0.00    -0.179 N   
ATOM     4   C4  UNL     1       0.066   0.938  -0.095  1.00  0.00     0.135 A   
ATOM     5   N5  UNL     1       0.415   1.405   2.055  1.00  0.00    -0.071 NA  
ATOM     6   N4  UNL     1      -0.235   0.254   2.012  1.00  0.00    -0.131 NA  
BRANCH   3   7
ATOM     7   C3  UNL     1       1.450   2.954   0.512  1.00  0.00     0.078 A   
ATOM     8   C1  UNL     1       3.056   5.139   0.114  1.00  0.00     0.231 A   
ATOM     9   N1  UNL     1       2.745   4.803   1.387  1.00  0.00    -0.225 NA  
ATOM     10  C21 UNL     1       2.603   4.436  -0.995  1.00  0.00     0.098 A   
ATOM     11  C2  UNL     1       1.953   3.719   1.562  1.00  0.00     0.140 A   
ATOM     12  C20 UNL     1       1.781   3.326  -0.795  1.00  0.00     0.053 A   
ATOM     13  F1  UNL     1       3.849   6.207  -0.056  1.00  0.00    -0.183 F   
ATOM     14  CL1 UNL     1       3.040   4.888  -2.595  1.00  0.00    -0.079 Cl  
ENDBRANCH   3   7
ENDBRANCH   1   2
BRANCH   1  15
ATOM     15  N3  UNL     1      -0.402  -2.468   1.185  1.00  0.00     0.249 N   
ATOM     16  H4  UNL     1      -1.074  -3.202   1.429  1.00  0.00     0.199 HD  
ATOM     17  H5  UNL     1      -0.141  -2.025   2.080  1.00  0.00     0.199 HD  
BRANCH  15  18
ATOM     18  C7  UNL     1       0.818  -3.111   0.607  1.00  0.00     0.164 C   
BRANCH  18  19
ATOM     19  C8  UNL     1       1.944  -2.152   0.335  1.00  0.00    -0.002 A   
ATOM     20  C9  UNL     1       2.682  -1.589   1.405  1.00  0.00     0.012 A   
ATOM     21  C13 UNL     1       2.234  -1.757  -0.984  1.00  0.00     0.045 A   
ATOM     22  C10 UNL     1       3.672  -0.628   1.171  1.00  0.00     0.037 A   
ATOM     23  C12 UNL     1       3.214  -0.804  -1.179  1.00  0.00     0.109 A   
ATOM     24  C11 UNL     1       3.909  -0.252  -0.132  1.00  0.00     0.108 A   
ATOM     25  O1  UNL     1       3.583  -0.285  -2.378  1.00  0.00    -0.316 OA  
ATOM     26  O2  UNL     1       4.806   0.681  -0.543  1.00  0.00    -0.316 OA  
ATOM     27  C14 UNL     1       4.660   0.595  -1.976  1.00  0.00     0.337 C   
ENDBRANCH  18  19
ENDBRANCH  15  18
ENDBRANCH   1  15
BRANCH   1  28
ATOM     28  C15 UNL     1      -2.586  -1.386   0.550  1.00  0.00     0.043 C   
ATOM     29  C16 UNL     1      -3.292  -2.626  -0.004  1.00  0.00     0.010 C   
ATOM     30  C19 UNL     1      -3.097  -1.292   1.996  1.00  0.00     0.010 C   
ATOM     31  C17 UNL     1      -4.686  -2.508   0.591  1.00  0.00     0.001 C   
ATOM     32  C18 UNL     1      -4.448  -2.012   2.012  1.00  0.00     0.001 C   
ENDBRANCH   1  28
TORSDOF 6
