REMARK SMILES OC[C@H](c1ccccc1F)n1cc([C@@H]([NH2+]Cc2ccc3c(c2)OCO3)C2CCCCC2)nn1
REMARK SMILES IDX 11 1 12 2 13 3 32 4 33 5 3 7 2 8 1 9 4 11 5 12 9 13 6 14
REMARK SMILES IDX 8 15 7 16 10 17 14 18 15 19 16 22 17 23 18 24 22 25 19 26
REMARK SMILES IDX 21 27 20 28 23 29 25 30 24 31 26 32 27 33 31 34 28 35 30 36
REMARK SMILES IDX 29 37
REMARK H PARENT 12 6 1 10 15 20 15 21
ROOT
ATOM     1   N1  UNL     1       1.260   2.245   0.769  1.00  0.00    -0.202 N   
ATOM     2   C9  UNL     1       1.317   0.899   1.008  1.00  0.00     0.046 A   
ATOM     3   C10 UNL     1       1.239   0.328  -0.241  1.00  0.00     0.127 A   
ATOM     4   N3  UNL     1       1.134   1.316  -1.184  1.00  0.00    -0.132 NA  
ATOM     5   N4  UNL     1       1.143   2.481  -0.559  1.00  0.00    -0.075 NA  
ATOM     6   H9  UNL     1       1.395   0.485   2.003  1.00  0.00     0.083 HD  
ENDROOT
BRANCH   1   7
ATOM     7   C2  UNL     1       1.262   3.372   1.705  1.00  0.00     0.158 C   
BRANCH   7   8
ATOM     8   C1  UNL     1       1.861   3.055   3.092  1.00  0.00     0.186 C   
BRANCH   8   9
ATOM     9   O1  UNL     1       3.233   2.677   2.978  1.00  0.00    -0.394 OA  
ATOM     10  H1  UNL     1       3.609   2.666   3.879  1.00  0.00     0.210 HD  
ENDBRANCH   8   9
ENDBRANCH   7   8
BRANCH   7  11
ATOM     11  C3  UNL     1      -0.134   3.957   1.823  1.00  0.00     0.013 A   
ATOM     12  C4  UNL     1      -0.388   5.273   1.403  1.00  0.00     0.009 A   
ATOM     13  C8  UNL     1      -1.200   3.211   2.345  1.00  0.00     0.128 A   
ATOM     14  C5  UNL     1      -1.671   5.815   1.508  1.00  0.00     0.001 A   
ATOM     15  C7  UNL     1      -2.479   3.746   2.454  1.00  0.00     0.039 A   
ATOM     16  C6  UNL     1      -2.716   5.054   2.033  1.00  0.00     0.003 A   
ATOM     17  F1  UNL     1      -0.995   1.948   2.747  1.00  0.00    -0.207 F   
ENDBRANCH   7  11
ENDBRANCH   1   7
BRANCH   3  18
ATOM     18  C11 UNL     1       1.182  -1.103  -0.665  1.00  0.00     0.117 C   
BRANCH  18  19
ATOM     19  N2  UNL     1       0.294  -1.250  -1.879  1.00  0.00     0.249 N   
ATOM     20  H11 UNL     1       0.619  -0.547  -2.558  1.00  0.00     0.199 HD  
ATOM     21  H12 UNL     1       0.409  -2.169  -2.309  1.00  0.00     0.199 HD  
BRANCH  19  22
ATOM     22  C12 UNL     1      -1.163  -0.993  -1.660  1.00  0.00     0.164 C   
BRANCH  22  23
ATOM     23  C13 UNL     1      -1.801  -1.989  -0.731  1.00  0.00    -0.002 A   
ATOM     24  C14 UNL     1      -2.162  -1.607   0.585  1.00  0.00     0.012 A   
ATOM     25  C18 UNL     1      -2.007  -3.317  -1.146  1.00  0.00     0.045 A   
ATOM     26  C15 UNL     1      -2.712  -2.534   1.479  1.00  0.00     0.037 A   
ATOM     27  C17 UNL     1      -2.551  -4.205  -0.238  1.00  0.00     0.109 A   
ATOM     28  C16 UNL     1      -2.891  -3.825   1.037  1.00  0.00     0.108 A   
ATOM     29  O2  UNL     1      -2.807  -5.519  -0.475  1.00  0.00    -0.316 OA  
ATOM     30  O3  UNL     1      -3.402  -4.853   1.765  1.00  0.00    -0.316 OA  
ATOM     31  C19 UNL     1      -3.364  -5.924   0.797  1.00  0.00     0.337 C   
ENDBRANCH  22  23
ENDBRANCH  19  22
ENDBRANCH  18  19
BRANCH  18  32
ATOM     32  C20 UNL     1       2.591  -1.696  -0.940  1.00  0.00     0.043 C   
ATOM     33  C21 UNL     1       2.550  -3.235  -1.031  1.00  0.00     0.010 C   
ATOM     34  C25 UNL     1       3.295  -1.111  -2.180  1.00  0.00     0.010 C   
ATOM     35  C22 UNL     1       3.948  -3.824  -1.218  1.00  0.00     0.001 C   
ATOM     36  C24 UNL     1       4.691  -1.704  -2.365  1.00  0.00     0.001 C   
ATOM     37  C23 UNL     1       4.652  -3.227  -2.433  1.00  0.00     0.000 C   
ENDBRANCH  18  32
ENDBRANCH   3  18
TORSDOF 9
