REMARK SMILES OC[C@@H](c1ccccc1F)n1cc([C@@H]([NH2+]Cc2ccc3c(c2)OCO3)C2CCCCC2)nn1
REMARK SMILES IDX 11 1 12 2 13 3 32 4 33 5 3 7 2 8 1 9 4 11 5 12 9 13 6 14
REMARK SMILES IDX 8 15 7 16 10 17 14 18 15 19 16 22 17 23 18 24 22 25 19 26
REMARK SMILES IDX 21 27 20 28 23 29 25 30 24 31 26 32 27 33 31 34 28 35 30 36
REMARK SMILES IDX 29 37
REMARK H PARENT 12 6 1 10 15 20 15 21
ROOT
ATOM     1   N1  UNL     1       0.953  -2.709  -1.253  1.00  0.00    -0.202 N   
ATOM     2   C9  UNL     1       0.680  -1.375  -1.101  1.00  0.00     0.046 A   
ATOM     3   C10 UNL     1      -0.370  -1.341  -0.215  1.00  0.00     0.127 A   
ATOM     4   N3  UNL     1      -0.695  -2.624   0.144  1.00  0.00    -0.132 NA  
ATOM     5   N4  UNL     1       0.103  -3.451  -0.510  1.00  0.00    -0.075 NA  
ATOM     6   H9  UNL     1       1.230  -0.613  -1.636  1.00  0.00     0.083 HD  
ENDROOT
BRANCH   1   7
ATOM     7   C2  UNL     1       1.939  -3.359  -2.117  1.00  0.00     0.158 C   
BRANCH   7   8
ATOM     8   C1  UNL     1       1.499  -3.331  -3.597  1.00  0.00     0.186 C   
BRANCH   8   9
ATOM     9   O1  UNL     1       1.267  -2.011  -4.094  1.00  0.00    -0.394 OA  
ATOM     10  H1  UNL     1       1.113  -2.091  -5.056  1.00  0.00     0.210 HD  
ENDBRANCH   8   9
ENDBRANCH   7   8
BRANCH   7  11
ATOM     11  C3  UNL     1       3.343  -2.858  -1.817  1.00  0.00     0.013 A   
ATOM     12  C4  UNL     1       3.958  -1.805  -2.512  1.00  0.00     0.009 A   
ATOM     13  C8  UNL     1       4.067  -3.468  -0.780  1.00  0.00     0.128 A   
ATOM     14  C5  UNL     1       5.251  -1.387  -2.176  1.00  0.00     0.001 A   
ATOM     15  C7  UNL     1       5.356  -3.063  -0.446  1.00  0.00     0.039 A   
ATOM     16  C6  UNL     1       5.950  -2.014  -1.144  1.00  0.00     0.003 A   
ATOM     17  F1  UNL     1       3.511  -4.468  -0.080  1.00  0.00    -0.207 F   
ENDBRANCH   7  11
ENDBRANCH   1   7
BRANCH   3  18
ATOM     18  C11 UNL     1      -1.162  -0.195   0.328  1.00  0.00     0.117 C   
BRANCH  18  19
ATOM     19  N2  UNL     1      -2.480  -0.681   0.886  1.00  0.00     0.249 N   
ATOM     20  H11 UNL     1      -2.878  -0.005   1.542  1.00  0.00     0.199 HD  
ATOM     21  H12 UNL     1      -2.263  -1.533   1.424  1.00  0.00     0.199 HD  
BRANCH  19  22
ATOM     22  C12 UNL     1      -3.517  -1.057  -0.119  1.00  0.00     0.164 C   
BRANCH  22  23
ATOM     23  C13 UNL     1      -4.063   0.128  -0.868  1.00  0.00    -0.002 A   
ATOM     24  C14 UNL     1      -3.732   0.319  -2.233  1.00  0.00     0.012 A   
ATOM     25  C18 UNL     1      -4.890   1.061  -0.219  1.00  0.00     0.045 A   
ATOM     26  C15 UNL     1      -4.202   1.431  -2.938  1.00  0.00     0.037 A   
ATOM     27  C17 UNL     1      -5.340   2.144  -0.945  1.00  0.00     0.109 A   
ATOM     28  C16 UNL     1      -5.004   2.325  -2.265  1.00  0.00     0.108 A   
ATOM     29  O2  UNL     1      -6.136   3.142  -0.473  1.00  0.00    -0.316 OA  
ATOM     30  O3  UNL     1      -5.544   3.459  -2.787  1.00  0.00    -0.316 OA  
ATOM     31  C19 UNL     1      -6.340   3.922  -1.675  1.00  0.00     0.337 C   
ENDBRANCH  22  23
ENDBRANCH  19  22
ENDBRANCH  18  19
BRANCH  18  32
ATOM     32  C20 UNL     1      -0.382   0.607   1.405  1.00  0.00     0.043 C   
ATOM     33  C21 UNL     1      -1.054   1.964   1.701  1.00  0.00     0.010 C   
ATOM     34  C25 UNL     1      -0.149  -0.169   2.717  1.00  0.00     0.010 C   
ATOM     35  C22 UNL     1      -0.249   2.784   2.707  1.00  0.00     0.001 C   
ATOM     36  C24 UNL     1       0.650   0.658   3.724  1.00  0.00     0.001 C   
ATOM     37  C23 UNL     1      -0.007   2.006   3.997  1.00  0.00     0.000 C   
ENDBRANCH  18  32
ENDBRANCH   3  18
TORSDOF 9
