REMARK SMILES CCc1c(C)[nH]c(C(=O)n2cc([C@@H]([NH2+]Cc3ccc4c(c3)OCO4)C(C)C)nn2)c1C
REMARK SMILES IDX 10 1 11 2 12 3 28 4 29 5 8 6 9 7 7 8 3 9 4 10 30 11 6 12
REMARK SMILES IDX 5 13 31 14 2 16 1 17 13 18 14 19 15 22 16 23 17 24 21 25
REMARK SMILES IDX 18 26 20 27 19 28 22 29 24 30 23 31 25 32 26 33 27 34
REMARK H PARENT 6 15 14 20 14 21
ROOT
ATOM     1   N2  UNL     1      -0.915   1.473   0.507  1.00  0.00    -0.142 N   
ATOM     2   C8  UNL     1       0.441   1.484   0.792  1.00  0.00     0.139 A   
ATOM     3   C9  UNL     1       1.017   0.673  -0.157  1.00  0.00     0.128 A   
ATOM     4   N4  UNL     1       0.033   0.164  -0.963  1.00  0.00    -0.131 NA  
ATOM     5   N5  UNL     1      -1.131   0.646  -0.554  1.00  0.00    -0.068 NA  
ENDROOT
BRANCH   1   6
ATOM     6   C7  UNL     1      -1.960   2.157   1.171  1.00  0.00     0.285 C   
ATOM     7   O1  UNL     1      -1.588   2.843   2.121  1.00  0.00    -0.268 OA  
BRANCH   6   8
ATOM     8   C6  UNL     1      -3.362   2.054   0.770  1.00  0.00     0.099 A   
ATOM     9   C3  UNL     1      -5.632   2.256   0.608  1.00  0.00    -0.026 A   
ATOM     10  C4  UNL     1      -5.189   1.423  -0.404  1.00  0.00     0.007 A   
ATOM     11  C22 UNL     1      -4.475   2.655   1.357  1.00  0.00    -0.020 A   
ATOM     12  N1  UNL     1      -3.829   1.321  -0.298  1.00  0.00    -0.314 N   
ATOM     13  C5  UNL     1      -5.942   0.716  -1.474  1.00  0.00     0.062 C   
ATOM     14  C23 UNL     1      -4.460   3.550   2.554  1.00  0.00     0.047 C   
ATOM     15  H9  UNL     1      -3.244   0.774  -0.921  1.00  0.00     0.153 HD  
BRANCH   9  16
ATOM     16  C2  UNL     1      -7.056   2.655   0.862  1.00  0.00     0.034 C   
ATOM     17  C1  UNL     1      -7.726   1.774   1.905  1.00  0.00     0.009 C   
ENDBRANCH   9  16
ENDBRANCH   6   8
ENDBRANCH   1   6
BRANCH   3  18
ATOM     18  C10 UNL     1       2.444   0.272  -0.368  1.00  0.00     0.117 C   
BRANCH  18  19
ATOM     19  N3  UNL     1       2.528  -1.142  -0.906  1.00  0.00     0.249 N   
ATOM     20  H12 UNL     1       3.471  -1.324  -1.264  1.00  0.00     0.199 HD  
ATOM     21  H13 UNL     1       1.883  -1.196  -1.706  1.00  0.00     0.199 HD  
BRANCH  19  22
ATOM     22  C11 UNL     1       2.154  -2.238   0.039  1.00  0.00     0.164 C   
BRANCH  22  23
ATOM     23  C12 UNL     1       3.115  -2.378   1.185  1.00  0.00    -0.002 A   
ATOM     24  C13 UNL     1       4.407  -2.917   0.978  1.00  0.00     0.012 A   
ATOM     25  C17 UNL     1       2.745  -1.943   2.470  1.00  0.00     0.045 A   
ATOM     26  C14 UNL     1       5.321  -3.016   2.033  1.00  0.00     0.037 A   
ATOM     27  C16 UNL     1       3.670  -2.054   3.487  1.00  0.00     0.109 A   
ATOM     28  C15 UNL     1       4.923  -2.574   3.275  1.00  0.00     0.108 A   
ATOM     29  O2  UNL     1       3.476  -1.675   4.776  1.00  0.00    -0.316 OA  
ATOM     30  O3  UNL     1       5.674  -2.592   4.405  1.00  0.00    -0.316 OA  
ATOM     31  C18 UNL     1       4.743  -2.049   5.366  1.00  0.00     0.337 C   
ENDBRANCH  22  23
ENDBRANCH  19  22
ENDBRANCH  18  19
BRANCH  18  32
ATOM     32  C19 UNL     1       3.228   1.204  -1.331  1.00  0.00     0.037 C   
ATOM     33  C20 UNL     1       2.641   1.290  -2.744  1.00  0.00     0.014 C   
ATOM     34  C21 UNL     1       3.385   2.614  -0.750  1.00  0.00     0.014 C   
ENDBRANCH  18  32
ENDBRANCH   3  18
TORSDOF 8
