REMARK SMILES Cc1ccc(C)c(C(=O)Cn2cc([C@@H]([NH2+]Cc3ccc4c(c3)OCO4)C(C)(C)C)nn2)c1
REMARK SMILES IDX 11 1 12 2 13 3 30 4 31 5 10 7 8 8 9 9 7 10 2 11 3 12 32 13
REMARK SMILES IDX 4 14 5 15 1 16 6 17 14 18 15 19 16 22 17 23 18 24 22 25
REMARK SMILES IDX 19 26 21 27 20 28 23 29 25 30 24 31 26 32 27 33 28 34 29 35
REMARK H PARENT 12 6 15 20 15 21
ROOT
ATOM     1   N1  UNL     1      -0.937   1.307   1.287  1.00  0.00    -0.204 N   
ATOM     2   C10 UNL     1      -1.625   0.140   1.095  1.00  0.00     0.046 A   
ATOM     3   C11 UNL     1      -0.691  -0.840   1.344  1.00  0.00     0.127 A   
ATOM     4   N3  UNL     1       0.501  -0.249   1.688  1.00  0.00    -0.132 NA  
ATOM     5   N4  UNL     1       0.334   1.064   1.658  1.00  0.00    -0.076 NA  
ATOM     6   H11 UNL     1      -2.654   0.123   0.762  1.00  0.00     0.083 HD  
ENDROOT
BRANCH   1   7
ATOM     7   C9  UNL     1      -1.407   2.665   1.102  1.00  0.00     0.214 C   
BRANCH   7   8
ATOM     8   C8  UNL     1      -1.401   3.038  -0.358  1.00  0.00     0.182 C   
ATOM     9   O1  UNL     1      -1.559   2.240  -1.277  1.00  0.00    -0.292 OA  
BRANCH   8  10
ATOM     10  C7  UNL     1      -1.256   4.474  -0.659  1.00  0.00     0.022 A   
ATOM     11  C2  UNL     1      -2.345   6.602  -1.052  1.00  0.00    -0.050 A   
ATOM     12  C3  UNL     1      -1.083   7.198  -1.157  1.00  0.00     0.004 A   
ATOM     13  C25 UNL     1      -2.428   5.231  -0.790  1.00  0.00     0.015 A   
ATOM     14  C4  UNL     1       0.082   6.434  -1.034  1.00  0.00     0.004 A   
ATOM     15  C5  UNL     1       0.013   5.056  -0.791  1.00  0.00    -0.040 A   
ATOM     16  C1  UNL     1      -3.588   7.437  -1.169  1.00  0.00     0.044 C   
ATOM     17  C6  UNL     1       1.276   4.251  -0.685  1.00  0.00     0.045 C   
ENDBRANCH   8  10
ENDBRANCH   7   8
ENDBRANCH   1   7
BRANCH   3  18
ATOM     18  C12 UNL     1      -0.766  -2.329   1.191  1.00  0.00     0.120 C   
BRANCH  18  19
ATOM     19  N2  UNL     1       0.530  -2.826   0.595  1.00  0.00     0.250 N   
ATOM     20  H13 UNL     1       0.627  -3.842   0.672  1.00  0.00     0.199 HD  
ATOM     21  H14 UNL     1       1.295  -2.416   1.149  1.00  0.00     0.199 HD  
BRANCH  19  22
ATOM     22  C13 UNL     1       0.769  -2.439  -0.827  1.00  0.00     0.164 C   
BRANCH  22  23
ATOM     23  C14 UNL     1       2.064  -3.029  -1.314  1.00  0.00    -0.002 A   
ATOM     24  C15 UNL     1       3.294  -2.404  -0.992  1.00  0.00     0.012 A   
ATOM     25  C19 UNL     1       2.067  -4.229  -2.043  1.00  0.00     0.045 A   
ATOM     26  C16 UNL     1       4.511  -2.966  -1.395  1.00  0.00     0.037 A   
ATOM     27  C18 UNL     1       3.284  -4.753  -2.426  1.00  0.00     0.109 A   
ATOM     28  C17 UNL     1       4.471  -4.141  -2.111  1.00  0.00     0.108 A   
ATOM     29  O2  UNL     1       3.462  -5.900  -3.133  1.00  0.00    -0.316 OA  
ATOM     30  O3  UNL     1       5.547  -4.825  -2.581  1.00  0.00    -0.316 OA  
ATOM     31  C20 UNL     1       4.902  -5.924  -3.257  1.00  0.00     0.337 C   
ENDBRANCH  22  23
ENDBRANCH  19  22
ENDBRANCH  18  19
BRANCH  18  32
ATOM     32  C21 UNL     1      -1.088  -3.093   2.523  1.00  0.00     0.010 C   
ATOM     33  C22 UNL     1       0.019  -2.936   3.584  1.00  0.00     0.017 C   
ATOM     34  C23 UNL     1      -2.416  -2.574   3.124  1.00  0.00     0.017 C   
ATOM     35  C24 UNL     1      -1.282  -4.602   2.246  1.00  0.00     0.017 C   
ENDBRANCH  18  32
ENDBRANCH   3  18
TORSDOF 8
