REMARK SMILES CC(C)C[C@H]([NH2+]Cc1ccc2c(c1)OCO2)c1cn(Cc2ncccc2F)nn1
REMARK SMILES IDX 17 1 18 2 19 3 28 4 29 5 5 7 4 8 2 9 1 10 3 11 6 12 7 15
REMARK SMILES IDX 8 16 9 17 13 18 10 19 12 20 11 21 14 22 16 23 15 24 20 25
REMARK SMILES IDX 21 26 22 27 26 28 23 29 25 30 24 31 27 32
REMARK H PARENT 18 6 6 13 6 14
ROOT
ATOM     1   C14 UNL     1      -0.605   0.058  -1.255  1.00  0.00     0.127 A   
ATOM     2   C15 UNL     1      -0.194  -1.208  -1.605  1.00  0.00     0.046 A   
ATOM     3   N2  UNL     1      -0.182  -1.185  -2.975  1.00  0.00    -0.206 N   
ATOM     4   N4  UNL     1      -0.503   0.040  -3.434  1.00  0.00    -0.076 NA  
ATOM     5   N5  UNL     1      -0.788   0.803  -2.392  1.00  0.00    -0.132 NA  
ATOM     6   H20 UNL     1       0.057  -2.098  -1.043  1.00  0.00     0.083 HD  
ENDROOT
BRANCH   1   7
ATOM     7   C5  UNL     1      -0.838   0.684   0.083  1.00  0.00     0.114 C   
BRANCH   7   8
ATOM     8   C4  UNL     1      -2.281   0.421   0.561  1.00  0.00     0.064 C   
BRANCH   8   9
ATOM     9   C2  UNL     1      -2.642   0.933   1.972  1.00  0.00    -0.012 C   
ATOM     10  C1  UNL     1      -4.095   0.568   2.292  1.00  0.00     0.007 C   
ATOM     11  C3  UNL     1      -1.720   0.373   3.055  1.00  0.00     0.007 C   
ENDBRANCH   8   9
ENDBRANCH   7   8
BRANCH   7  12
ATOM     12  N1  UNL     1      -0.610   2.175   0.003  1.00  0.00     0.249 N   
ATOM     13  H11 UNL     1      -1.118   2.494  -0.835  1.00  0.00     0.199 HD  
ATOM     14  H12 UNL     1      -1.019   2.655   0.807  1.00  0.00     0.199 HD  
BRANCH  12  15
ATOM     15  C6  UNL     1       0.809   2.615  -0.145  1.00  0.00     0.164 C   
BRANCH  15  16
ATOM     16  C7  UNL     1       1.602   2.427   1.119  1.00  0.00    -0.002 A   
ATOM     17  C8  UNL     1       1.417   3.301   2.217  1.00  0.00     0.012 A   
ATOM     18  C12 UNL     1       2.508   1.357   1.231  1.00  0.00     0.045 A   
ATOM     19  C9  UNL     1       2.117   3.110   3.414  1.00  0.00     0.037 A   
ATOM     20  C11 UNL     1       3.179   1.196   2.425  1.00  0.00     0.109 A   
ATOM     21  C10 UNL     1       2.989   2.047   3.486  1.00  0.00     0.108 A   
ATOM     22  O1  UNL     1       4.075   0.213   2.701  1.00  0.00    -0.316 OA  
ATOM     23  O2  UNL     1       3.745   1.709   4.562  1.00  0.00    -0.316 OA  
ATOM     24  C13 UNL     1       4.455   0.560   4.053  1.00  0.00     0.337 C   
ENDBRANCH  15  16
ENDBRANCH  12  15
ENDBRANCH   7  12
ENDBRANCH   1   7
BRANCH   3  25
ATOM     25  C16 UNL     1       0.182  -2.253  -3.888  1.00  0.00     0.193 C   
BRANCH  25  26
ATOM     26  C17 UNL     1      -0.892  -3.300  -3.925  1.00  0.00     0.095 A   
ATOM     27  N3  UNL     1      -0.833  -4.293  -2.993  1.00  0.00    -0.256 NA  
ATOM     28  C21 UNL     1      -1.911  -3.225  -4.869  1.00  0.00     0.146 A   
ATOM     29  C18 UNL     1      -1.804  -5.236  -3.036  1.00  0.00     0.111 A   
ATOM     30  C20 UNL     1      -2.899  -4.200  -4.885  1.00  0.00     0.043 A   
ATOM     31  C19 UNL     1      -2.845  -5.231  -3.952  1.00  0.00     0.023 A   
ATOM     32  F1  UNL     1      -1.948  -2.228  -5.761  1.00  0.00    -0.205 F   
ENDBRANCH  25  26
ENDBRANCH   3  25
TORSDOF 8
