REMARK SMILES CCOc1ccc(Cn2cc([C@@H]([NH2+]Cc3ccc4c(c3)OCO4)C(C)C)nn2)cc1
REMARK SMILES IDX 9 1 10 2 11 3 27 4 28 5 8 7 7 8 4 9 5 10 30 11 6 12 29 13
REMARK SMILES IDX 3 14 2 15 1 16 12 17 13 18 14 21 15 22 16 23 20 24 17 25
REMARK SMILES IDX 19 26 18 27 21 28 23 29 22 30 24 31 25 32 26 33
REMARK H PARENT 10 6 13 19 13 20
ROOT
ATOM     1   N1  UNL     1       0.747   0.776   3.277  1.00  0.00    -0.208 N   
ATOM     2   C8  UNL     1       1.230  -0.095   2.340  1.00  0.00     0.046 A   
ATOM     3   C9  UNL     1       2.357   0.530   1.855  1.00  0.00     0.127 A   
ATOM     4   N3  UNL     1       2.547   1.707   2.532  1.00  0.00    -0.132 NA  
ATOM     5   N4  UNL     1       1.552   1.851   3.392  1.00  0.00    -0.076 NA  
ATOM     6   H10 UNL     1       0.713  -1.008   2.074  1.00  0.00     0.083 HD  
ENDROOT
BRANCH   1   7
ATOM     7   C7  UNL     1      -0.517   0.708   3.994  1.00  0.00     0.169 C   
BRANCH   7   8
ATOM     8   C6  UNL     1      -1.667   0.918   3.038  1.00  0.00    -0.028 A   
ATOM     9   C3  UNL     1      -3.732   1.296   1.159  1.00  0.00     0.075 A   
ATOM     10  C4  UNL     1      -3.485   0.028   1.685  1.00  0.00     0.034 A   
ATOM     11  C23 UNL     1      -2.952   2.373   1.581  1.00  0.00     0.034 A   
ATOM     12  C5  UNL     1      -2.458  -0.160   2.618  1.00  0.00     0.008 A   
ATOM     13  C22 UNL     1      -1.931   2.192   2.517  1.00  0.00     0.008 A   
BRANCH   9  14
ATOM     14  O1  UNL     1      -4.680   1.609   0.227  1.00  0.00    -0.346 OA  
BRANCH  14  15
ATOM     15  C2  UNL     1      -5.639   0.600  -0.089  1.00  0.00     0.164 C   
ATOM     16  C1  UNL     1      -6.645   1.194  -1.058  1.00  0.00     0.035 C   
ENDBRANCH  14  15
ENDBRANCH   9  14
ENDBRANCH   7   8
ENDBRANCH   1   7
BRANCH   3  17
ATOM     17  C10 UNL     1       3.251   0.175   0.712  1.00  0.00     0.117 C   
BRANCH  17  18
ATOM     18  N2  UNL     1       3.463   1.390  -0.173  1.00  0.00     0.249 N   
ATOM     19  H12 UNL     1       3.947   2.092   0.402  1.00  0.00     0.199 HD  
ATOM     20  H13 UNL     1       4.076   1.155  -0.956  1.00  0.00     0.199 HD  
BRANCH  18  21
ATOM     21  C11 UNL     1       2.237   2.051  -0.726  1.00  0.00     0.164 C   
BRANCH  21  22
ATOM     22  C12 UNL     1       1.357   1.133  -1.527  1.00  0.00    -0.002 A   
ATOM     23  C13 UNL     1       0.048   0.835  -1.075  1.00  0.00     0.012 A   
ATOM     24  C17 UNL     1       1.820   0.559  -2.724  1.00  0.00     0.045 A   
ATOM     25  C14 UNL     1      -0.784  -0.032  -1.791  1.00  0.00     0.037 A   
ATOM     26  C16 UNL     1       0.975  -0.292  -3.405  1.00  0.00     0.109 A   
ATOM     27  C15 UNL     1      -0.289  -0.581  -2.952  1.00  0.00     0.108 A   
ATOM     28  O2  UNL     1       1.269  -0.932  -4.567  1.00  0.00    -0.316 OA  
ATOM     29  O3  UNL     1      -0.949  -1.439  -3.772  1.00  0.00    -0.316 OA  
ATOM     30  C18 UNL     1       0.028  -1.631  -4.817  1.00  0.00     0.337 C   
ENDBRANCH  21  22
ENDBRANCH  18  21
ENDBRANCH  17  18
BRANCH  17  31
ATOM     31  C19 UNL     1       4.635  -0.350   1.189  1.00  0.00     0.037 C   
ATOM     32  C20 UNL     1       5.584  -0.668   0.025  1.00  0.00     0.014 C   
ATOM     33  C21 UNL     1       4.485  -1.616   2.047  1.00  0.00     0.014 C   
ENDBRANCH  17  31
ENDBRANCH   3  17
TORSDOF 9
