REMARK SMILES CC(C)(C)[C@H]([NH2+]Cc1ccc2c(c1)OCO2)c1cn(CCc2ccc(N)cc2)nn1
REMARK SMILES IDX 17 1 18 2 19 3 29 4 30 5 5 7 2 8 1 9 3 10 4 11 6 12 7 15
REMARK SMILES IDX 8 16 9 17 13 18 10 19 12 20 11 21 14 22 16 23 15 24 20 25
REMARK SMILES IDX 21 26 22 27 23 28 28 29 24 30 27 31 25 32 26 33
REMARK H PARENT 18 6 6 13 6 14 26 34 26 35
ROOT
ATOM     1   C14 UNL     1       1.287   0.596  -2.240  1.00  0.00     0.127 A   
ATOM     2   C15 UNL     1       2.561   0.090  -2.107  1.00  0.00     0.045 A   
ATOM     3   N2  UNL     1       3.257   1.108  -1.516  1.00  0.00    -0.212 N   
ATOM     4   N4  UNL     1       2.484   2.198  -1.365  1.00  0.00    -0.076 NA  
ATOM     5   N5  UNL     1       1.268   1.891  -1.788  1.00  0.00    -0.132 NA  
ATOM     6   H20 UNL     1       2.998  -0.881  -2.292  1.00  0.00     0.083 HD  
ENDROOT
BRANCH   1   7
ATOM     7   C5  UNL     1       0.008  -0.081  -2.627  1.00  0.00     0.120 C   
BRANCH   7   8
ATOM     8   C2  UNL     1      -0.495   0.260  -4.072  1.00  0.00     0.010 C   
ATOM     9   C1  UNL     1       0.609  -0.068  -5.104  1.00  0.00     0.017 C   
ATOM     10  C3  UNL     1      -0.892   1.740  -4.239  1.00  0.00     0.017 C   
ATOM     11  C4  UNL     1      -1.722  -0.610  -4.430  1.00  0.00     0.017 C   
ENDBRANCH   7   8
BRANCH   7  12
ATOM     12  N1  UNL     1      -1.046   0.255  -1.599  1.00  0.00     0.250 N   
ATOM     13  H11 UNL     1      -1.025   1.278  -1.475  1.00  0.00     0.199 HD  
ATOM     14  H12 UNL     1      -1.991   0.017  -1.911  1.00  0.00     0.199 HD  
BRANCH  12  15
ATOM     15  C6  UNL     1      -0.824  -0.352  -0.252  1.00  0.00     0.164 C   
BRANCH  15  16
ATOM     16  C7  UNL     1      -1.879   0.108   0.713  1.00  0.00    -0.002 A   
ATOM     17  C8  UNL     1      -1.763   1.372   1.341  1.00  0.00     0.012 A   
ATOM     18  C12 UNL     1      -3.003  -0.694   0.972  1.00  0.00     0.045 A   
ATOM     19  C9  UNL     1      -2.747   1.828   2.225  1.00  0.00     0.037 A   
ATOM     20  C11 UNL     1      -3.954  -0.214   1.847  1.00  0.00     0.109 A   
ATOM     21  C10 UNL     1      -3.830   1.011   2.457  1.00  0.00     0.108 A   
ATOM     22  O1  UNL     1      -5.091  -0.864   2.212  1.00  0.00    -0.316 OA  
ATOM     23  O2  UNL     1      -4.874   1.287   3.281  1.00  0.00    -0.316 OA  
ATOM     24  C13 UNL     1      -5.666   0.089   3.135  1.00  0.00     0.337 C   
ENDBRANCH  15  16
ENDBRANCH  12  15
ENDBRANCH   7  12
ENDBRANCH   1   7
BRANCH   3  25
ATOM     25  C16 UNL     1       4.584   1.046  -0.937  1.00  0.00     0.139 C   
BRANCH  25  26
ATOM     26  C17 UNL     1       4.583   1.092   0.598  1.00  0.00     0.057 C   
BRANCH  26  27
ATOM     27  C18 UNL     1       3.592   0.146   1.241  1.00  0.00    -0.046 A   
ATOM     28  C19 UNL     1       3.654  -1.235   1.022  1.00  0.00     0.005 A   
ATOM     29  C23 UNL     1       2.549   0.657   2.024  1.00  0.00     0.005 A   
ATOM     30  C20 UNL     1       2.656  -2.075   1.525  1.00  0.00     0.023 A   
ATOM     31  C22 UNL     1       1.568  -0.191   2.543  1.00  0.00     0.023 A   
ATOM     32  C21 UNL     1       1.621  -1.566   2.312  1.00  0.00     0.023 A   
BRANCH  32  33
ATOM     33  N3  UNL     1       0.525  -2.376   2.647  1.00  0.00    -0.358 N   
ATOM     34  H27 UNL     1       0.028  -2.039   3.470  1.00  0.00     0.143 HD  
ATOM     35  H28 UNL     1       0.787  -3.352   2.776  1.00  0.00     0.143 HD  
ENDBRANCH  32  33
ENDBRANCH  26  27
ENDBRANCH  25  26
ENDBRANCH   3  25
TORSDOF 9
