REMARK SMILES CC(C)(C)[C@H]([NH2+]Cc1ccc2c(c1)OCO2)c1cn(CC(=O)c2ccc(F)cc2F)nn1
REMARK SMILES IDX 17 1 18 2 19 3 31 4 32 5 5 7 2 8 1 9 3 10 4 11 6 12 7 15
REMARK SMILES IDX 8 16 9 17 13 18 10 19 12 20 11 21 14 22 16 23 15 24 20 25
REMARK SMILES IDX 21 26 22 27 23 28 24 29 29 30 25 31 28 32 26 33 30 34 27 35
REMARK H PARENT 18 6 6 13 6 14
ROOT
ATOM     1   C14 UNL     1      -0.099   1.028  -0.209  1.00  0.00     0.127 A   
ATOM     2   C15 UNL     1      -1.158   1.885  -0.004  1.00  0.00     0.046 A   
ATOM     3   N2  UNL     1      -2.059   1.132   0.696  1.00  0.00    -0.204 N   
ATOM     4   N3  UNL     1      -1.539  -0.070   1.011  1.00  0.00    -0.076 NA  
ATOM     5   N4  UNL     1      -0.349  -0.156   0.441  1.00  0.00    -0.132 NA  
ATOM     6   H20 UNL     1      -1.372   2.894  -0.330  1.00  0.00     0.083 HD  
ENDROOT
BRANCH   1   7
ATOM     7   C5  UNL     1       1.200   1.209  -0.936  1.00  0.00     0.120 C   
BRANCH   7   8
ATOM     8   C2  UNL     1       1.130   0.895  -2.473  1.00  0.00     0.010 C   
ATOM     9   C1  UNL     1       2.466   1.273  -3.157  1.00  0.00     0.017 C   
ATOM     10  C3  UNL     1       0.841  -0.591  -2.762  1.00  0.00     0.017 C   
ATOM     11  C4  UNL     1       0.028   1.742  -3.151  1.00  0.00     0.017 C   
ENDBRANCH   7   8
BRANCH   7  12
ATOM     12  N1  UNL     1       2.249   0.341  -0.277  1.00  0.00     0.250 N   
ATOM     13  H11 UNL     1       3.054   0.165  -0.881  1.00  0.00     0.199 HD  
ATOM     14  H12 UNL     1       1.806  -0.575  -0.117  1.00  0.00     0.199 HD  
BRANCH  12  15
ATOM     15  C6  UNL     1       2.739   0.820   1.046  1.00  0.00     0.164 C   
BRANCH  15  16
ATOM     16  C7  UNL     1       3.753  -0.140   1.601  1.00  0.00    -0.002 A   
ATOM     17  C8  UNL     1       3.327  -1.298   2.295  1.00  0.00     0.012 A   
ATOM     18  C12 UNL     1       5.124   0.074   1.384  1.00  0.00     0.045 A   
ATOM     19  C9  UNL     1       4.255  -2.230   2.774  1.00  0.00     0.037 A   
ATOM     20  C11 UNL     1       6.011  -0.864   1.870  1.00  0.00     0.109 A   
ATOM     21  C10 UNL     1       5.591  -1.984   2.544  1.00  0.00     0.108 A   
ATOM     22  O1  UNL     1       7.363  -0.809   1.749  1.00  0.00    -0.316 OA  
ATOM     23  O2  UNL     1       6.624  -2.776   2.930  1.00  0.00    -0.316 OA  
ATOM     24  C13 UNL     1       7.752  -2.009   2.456  1.00  0.00     0.337 C   
ENDBRANCH  15  16
ENDBRANCH  12  15
ENDBRANCH   7  12
ENDBRANCH   1   7
BRANCH   3  25
ATOM     25  C16 UNL     1      -3.397   1.494   1.126  1.00  0.00     0.215 C   
BRANCH  25  26
ATOM     26  C17 UNL     1      -4.398   1.313   0.007  1.00  0.00     0.185 C   
ATOM     27  O3  UNL     1      -4.069   1.296  -1.180  1.00  0.00    -0.292 OA  
BRANCH  26  28
ATOM     28  C18 UNL     1      -5.838   1.161   0.346  1.00  0.00     0.055 A   
ATOM     29  C19 UNL     1      -6.695   0.576  -0.599  1.00  0.00     0.018 A   
ATOM     30  C23 UNL     1      -6.365   1.591   1.567  1.00  0.00     0.136 A   
ATOM     31  C20 UNL     1      -8.051   0.409  -0.305  1.00  0.00     0.040 A   
ATOM     32  C22 UNL     1      -7.715   1.433   1.862  1.00  0.00     0.079 A   
ATOM     33  C21 UNL     1      -8.546   0.838   0.922  1.00  0.00     0.126 A   
ATOM     34  F2  UNL     1      -5.583   2.186   2.480  1.00  0.00    -0.206 F   
ATOM     35  F1  UNL     1      -9.845   0.675   1.202  1.00  0.00    -0.207 F   
ENDBRANCH  26  28
ENDBRANCH  25  26
ENDBRANCH   3  25
TORSDOF 8
