REMARK SMILES Cc1nn(C)c(Cl)c1CCn1cc([C@@H]([NH2+]Cc2ccc3c(c2)OCO3)C2CCCCC2)nn1
REMARK SMILES IDX 11 1 12 2 13 3 32 4 33 5 10 7 9 8 8 9 2 10 3 11 4 12 6 13
REMARK SMILES IDX 1 14 5 15 7 16 14 17 15 18 16 21 17 22 18 23 22 24 19 25
REMARK SMILES IDX 21 26 20 27 23 28 25 29 24 30 26 31 27 32 31 33 28 34 30 35
REMARK SMILES IDX 29 36
REMARK H PARENT 12 6 15 19 15 20
ROOT
ATOM     1   N3  UNL     1      -0.272   1.087  -2.754  1.00  0.00    -0.212 N   
ATOM     2   C8  UNL     1       0.057   0.089  -1.882  1.00  0.00     0.045 A   
ATOM     3   C9  UNL     1       0.645   0.750  -0.827  1.00  0.00     0.127 A   
ATOM     4   N5  UNL     1       0.720   2.088  -1.125  1.00  0.00    -0.132 NA  
ATOM     5   N6  UNL     1       0.164   2.279  -2.310  1.00  0.00    -0.076 NA  
ATOM     6   H11 UNL     1      -0.192  -0.948  -2.065  1.00  0.00     0.083 HD  
ENDROOT
BRANCH   1   7
ATOM     7   C7  UNL     1      -1.023   0.983  -3.988  1.00  0.00     0.139 C   
BRANCH   7   8
ATOM     8   C6  UNL     1      -2.484   1.408  -3.831  1.00  0.00     0.062 C   
BRANCH   8   9
ATOM     9   C5  UNL     1      -3.236   0.595  -2.828  1.00  0.00     0.011 A   
ATOM     10  C2  UNL     1      -3.666   0.986  -1.526  1.00  0.00     0.062 A   
ATOM     11  N1  UNL     1      -4.262  -0.018  -0.870  1.00  0.00    -0.185 NA  
ATOM     12  N2  UNL     1      -4.310  -1.022  -1.771  1.00  0.00    -0.217 N   
ATOM     13  C4  UNL     1      -3.671  -0.705  -2.930  1.00  0.00     0.121 A   
ATOM     14  C1  UNL     1      -3.512   2.311  -0.870  1.00  0.00     0.069 C   
ATOM     15  C3  UNL     1      -4.990  -2.247  -1.430  1.00  0.00     0.161 C   
ATOM     16  CL1 UNL     1      -3.523  -1.836  -4.190  1.00  0.00    -0.065 Cl  
ENDBRANCH   8   9
ENDBRANCH   7   8
ENDBRANCH   1   7
BRANCH   3  17
ATOM     17  C10 UNL     1       1.206   0.246   0.469  1.00  0.00     0.117 C   
BRANCH  17  18
ATOM     18  N4  UNL     1       2.323   1.183   0.875  1.00  0.00     0.249 N   
ATOM     19  H13 UNL     1       1.915   2.121   0.986  1.00  0.00     0.199 HD  
ATOM     20  H14 UNL     1       2.925   1.286   0.049  1.00  0.00     0.199 HD  
BRANCH  18  21
ATOM     21  C11 UNL     1       3.177   0.839   2.039  1.00  0.00     0.164 C   
BRANCH  21  22
ATOM     22  C12 UNL     1       3.895  -0.471   1.879  1.00  0.00    -0.002 A   
ATOM     23  C13 UNL     1       4.962  -0.597   0.955  1.00  0.00     0.012 A   
ATOM     24  C17 UNL     1       3.490  -1.593   2.622  1.00  0.00     0.045 A   
ATOM     25  C14 UNL     1       5.609  -1.823   0.768  1.00  0.00     0.037 A   
ATOM     26  C16 UNL     1       4.148  -2.787   2.411  1.00  0.00     0.109 A   
ATOM     27  C15 UNL     1       5.177  -2.899   1.510  1.00  0.00     0.108 A   
ATOM     28  O1  UNL     1       3.874  -3.960   3.037  1.00  0.00    -0.316 OA  
ATOM     29  O2  UNL     1       5.683  -4.158   1.457  1.00  0.00    -0.316 OA  
ATOM     30  C18 UNL     1       4.874  -4.824   2.450  1.00  0.00     0.337 C   
ENDBRANCH  21  22
ENDBRANCH  18  21
ENDBRANCH  17  18
BRANCH  17  31
ATOM     31  C19 UNL     1       0.154   0.106   1.601  1.00  0.00     0.043 C   
ATOM     32  C20 UNL     1      -0.898  -0.971   1.266  1.00  0.00     0.010 C   
ATOM     33  C24 UNL     1      -0.541   1.424   1.991  1.00  0.00     0.010 C   
ATOM     34  C21 UNL     1      -1.887  -1.172   2.412  1.00  0.00     0.001 C   
ATOM     35  C23 UNL     1      -1.542   1.221   3.128  1.00  0.00     0.001 C   
ATOM     36  C22 UNL     1      -2.563   0.138   2.802  1.00  0.00     0.000 C   
ENDBRANCH  17  31
ENDBRANCH   3  17
TORSDOF 8
