REMARK SMILES Cc1cc(-n2cc([C@@H]([NH2+]Cc3ccc4c(c3)OCO4)C(C)C)nn2)cc(=O)o1
REMARK SMILES IDX 8 1 7 2 5 3 6 4 24 5 23 6 4 7 2 8 3 9 28 10 26 11 25 12 1 13
REMARK SMILES IDX 27 14 9 15 10 18 11 19 12 20 16 21 13 22 15 23 14 24 17 25
REMARK SMILES IDX 19 26 18 27 20 28 21 29 22 30
REMARK H PARENT 9 16 9 17
ROOT
ATOM     1   C7  UNL     1      -0.932  -0.402  -0.778  1.00  0.00     0.117 C   
ENDROOT
BRANCH   1   2
ATOM     2   C6  UNL     1      -0.340  -0.501   0.595  1.00  0.00     0.127 A   
ATOM     3   N1  UNL     1       0.521  -0.203   2.619  1.00  0.00    -0.180 N   
ATOM     4   C5  UNL     1       0.012   0.469   1.504  1.00  0.00     0.135 A   
ATOM     5   N4  UNL     1       0.479  -1.540   2.316  1.00  0.00    -0.071 NA  
ATOM     6   N3  UNL     1      -0.045  -1.722   1.117  1.00  0.00    -0.131 NA  
BRANCH   3   7
ATOM     7   C4  UNL     1       0.998   0.365   3.825  1.00  0.00     0.066 A   
ATOM     8   C2  UNL     1       1.955  -0.007   6.029  1.00  0.00     0.062 A   
ATOM     9   C3  UNL     1       1.495  -0.509   4.876  1.00  0.00     0.055 A   
ATOM     10  O4  UNL     1       1.978   1.383   6.272  1.00  0.00    -0.279 OA  
ATOM     11  C20 UNL     1       1.526   2.255   5.329  1.00  0.00     0.292 A   
ATOM     12  C19 UNL     1       1.021   1.688   4.065  1.00  0.00     0.106 A   
ATOM     13  C1  UNL     1       2.480  -0.833   7.159  1.00  0.00     0.073 C   
ATOM     14  O3  UNL     1       1.525   3.470   5.487  1.00  0.00    -0.261 OA  
ENDBRANCH   3   7
ENDBRANCH   1   2
BRANCH   1  15
ATOM     15  N2  UNL     1      -0.617  -1.640  -1.585  1.00  0.00     0.249 N   
ATOM     16  H7  UNL     1      -1.254  -1.730  -2.381  1.00  0.00     0.199 HD  
ATOM     17  H8  UNL     1      -0.793  -2.443  -0.965  1.00  0.00     0.199 HD  
BRANCH  15  18
ATOM     18  C8  UNL     1       0.787  -1.766  -2.080  1.00  0.00     0.164 C   
BRANCH  18  19
ATOM     19  C9  UNL     1       1.108  -0.778  -3.166  1.00  0.00    -0.002 A   
ATOM     20  C10 UNL     1       0.567  -0.938  -4.465  1.00  0.00     0.012 A   
ATOM     21  C14 UNL     1       1.924   0.333  -2.890  1.00  0.00     0.045 A   
ATOM     22  C11 UNL     1       0.827  -0.003  -5.473  1.00  0.00     0.037 A   
ATOM     23  C13 UNL     1       2.159   1.237  -3.906  1.00  0.00     0.109 A   
ATOM     24  C12 UNL     1       1.625   1.075  -5.160  1.00  0.00     0.108 A   
ATOM     25  O1  UNL     1       2.912   2.363  -3.802  1.00  0.00    -0.316 OA  
ATOM     26  O2  UNL     1       1.979   2.076  -6.006  1.00  0.00    -0.316 OA  
ATOM     27  C15 UNL     1       2.824   2.877  -5.151  1.00  0.00     0.337 C   
ENDBRANCH  18  19
ENDBRANCH  15  18
ENDBRANCH   1  15
BRANCH   1  28
ATOM     28  C16 UNL     1      -2.466  -0.169  -0.735  1.00  0.00     0.037 C   
ATOM     29  C17 UNL     1      -3.011   0.264  -2.102  1.00  0.00     0.014 C   
ATOM     30  C18 UNL     1      -3.265  -1.369  -0.215  1.00  0.00     0.014 C   
ENDBRANCH   1  28
TORSDOF 6
