REMARK SMILES COc1c(C)ccnc1Cn1cc([C@@H]([NH2+]Cc2ccc3c(c2)OCO3)C2CCCC2)nn1
REMARK SMILES IDX 11 1 12 2 13 3 31 4 32 5 10 7 9 8 3 9 4 10 6 11 8 12 7 13
REMARK SMILES IDX 5 14 2 15 1 16 14 17 15 18 16 21 17 22 18 23 22 24 19 25
REMARK SMILES IDX 21 26 20 27 23 28 25 29 24 30 26 31 27 32 30 33 28 34 29 35
REMARK H PARENT 12 6 15 19 15 20
ROOT
ATOM     1   N2  UNL     1      -2.575  -0.796  -0.035  1.00  0.00    -0.206 N   
ATOM     2   C9  UNL     1      -1.593  -1.749   0.024  1.00  0.00     0.046 A   
ATOM     3   C10 UNL     1      -0.546  -1.105   0.641  1.00  0.00     0.127 A   
ATOM     4   N4  UNL     1      -0.923   0.175   0.957  1.00  0.00    -0.132 NA  
ATOM     5   N5  UNL     1      -2.171   0.345   0.558  1.00  0.00    -0.076 NA  
ATOM     6   H11 UNL     1      -1.727  -2.737  -0.396  1.00  0.00     0.083 HD  
ENDROOT
BRANCH   1   7
ATOM     7   C8  UNL     1      -3.902  -0.907  -0.608  1.00  0.00     0.192 C   
BRANCH   7   8
ATOM     8   C7  UNL     1      -3.834  -1.219  -2.079  1.00  0.00     0.090 A   
ATOM     9   C2  UNL     1      -3.469  -0.246  -3.018  1.00  0.00     0.101 A   
ATOM     10  C3  UNL     1      -3.341  -0.608  -4.366  1.00  0.00    -0.017 A   
ATOM     11  C5  UNL     1      -3.675  -1.915  -4.733  1.00  0.00     0.026 A   
ATOM     12  N1  UNL     1      -4.118  -2.503  -2.433  1.00  0.00    -0.257 NA  
ATOM     13  C6  UNL     1      -4.053  -2.812  -3.748  1.00  0.00     0.112 A   
ATOM     14  C4  UNL     1      -2.902   0.365  -5.421  1.00  0.00     0.047 C   
BRANCH   9  15
ATOM     15  O1  UNL     1      -3.146   1.016  -2.597  1.00  0.00    -0.347 OA  
ATOM     16  C1  UNL     1      -4.254   1.907  -2.766  1.00  0.00     0.203 C   
ENDBRANCH   9  15
ENDBRANCH   7   8
ENDBRANCH   1   7
BRANCH   3  17
ATOM     17  C11 UNL     1       0.856  -1.539   0.908  1.00  0.00     0.117 C   
BRANCH  17  18
ATOM     18  N3  UNL     1       1.790  -0.377   0.696  1.00  0.00     0.249 N   
ATOM     19  H13 UNL     1       1.348   0.445   1.135  1.00  0.00     0.199 HD  
ATOM     20  H14 UNL     1       2.689  -0.515   1.167  1.00  0.00     0.199 HD  
BRANCH  18  21
ATOM     21  C12 UNL     1       2.036  -0.019  -0.729  1.00  0.00     0.164 C   
BRANCH  21  22
ATOM     22  C13 UNL     1       2.920   1.192  -0.824  1.00  0.00    -0.002 A   
ATOM     23  C14 UNL     1       2.352   2.478  -0.980  1.00  0.00     0.012 A   
ATOM     24  C18 UNL     1       4.315   1.059  -0.703  1.00  0.00     0.045 A   
ATOM     25  C15 UNL     1       3.160   3.620  -1.023  1.00  0.00     0.037 A   
ATOM     26  C17 UNL     1       5.081   2.205  -0.741  1.00  0.00     0.109 A   
ATOM     27  C16 UNL     1       4.521   3.451  -0.897  1.00  0.00     0.108 A   
ATOM     28  O2  UNL     1       6.435   2.254  -0.621  1.00  0.00    -0.316 OA  
ATOM     29  O3  UNL     1       5.451   4.441  -0.908  1.00  0.00    -0.316 OA  
ATOM     30  C19 UNL     1       6.665   3.680  -0.717  1.00  0.00     0.337 C   
ENDBRANCH  21  22
ENDBRANCH  18  21
ENDBRANCH  17  18
BRANCH  17  31
ATOM     31  C20 UNL     1       1.027  -2.134   2.320  1.00  0.00     0.043 C   
ATOM     32  C21 UNL     1       2.381  -2.808   2.564  1.00  0.00     0.010 C   
ATOM     33  C24 UNL     1       0.902  -1.160   3.503  1.00  0.00     0.010 C   
ATOM     34  C22 UNL     1       2.378  -3.030   4.066  1.00  0.00     0.001 C   
ATOM     35  C23 UNL     1       1.746  -1.761   4.633  1.00  0.00     0.001 C   
ENDBRANCH  17  31
ENDBRANCH   3  17
TORSDOF 8
