REMARK SMILES CC(C)C[C@H]([NH2+]Cc1ccc2c(c1)OCO2)c1cn([C@@H](CO)c2cc(F)cc(F)c2)nn1
REMARK SMILES IDX 17 1 18 2 19 3 31 4 32 5 5 7 4 8 2 9 1 10 3 11 6 12 7 15
REMARK SMILES IDX 8 16 9 17 13 18 10 19 12 20 11 21 14 22 16 23 15 24 20 25
REMARK SMILES IDX 21 26 22 27 23 29 24 30 30 31 25 32 28 33 27 34 26 35 29 36
REMARK H PARENT 18 6 6 13 6 14 22 28
ROOT
ATOM     1   C14 UNL     1      -1.179  -1.019  -0.531  1.00  0.00     0.127 A   
ATOM     2   C15 UNL     1      -1.756  -2.109   0.077  1.00  0.00     0.046 A   
ATOM     3   N2  UNL     1      -0.694  -2.913   0.402  1.00  0.00    -0.202 N   
ATOM     4   N3  UNL     1       0.464  -2.352  -0.000  1.00  0.00    -0.075 NA  
ATOM     5   N4  UNL     1       0.181  -1.200  -0.581  1.00  0.00    -0.132 NA  
ATOM     6   H20 UNL     1      -2.775  -2.368   0.333  1.00  0.00     0.083 HD  
ENDROOT
BRANCH   1   7
ATOM     7   C5  UNL     1      -1.764   0.260  -1.051  1.00  0.00     0.114 C   
BRANCH   7   8
ATOM     8   C4  UNL     1      -2.181   0.118  -2.527  1.00  0.00     0.064 C   
BRANCH   8   9
ATOM     9   C2  UNL     1      -2.935   1.322  -3.134  1.00  0.00    -0.012 C   
ATOM     10  C1  UNL     1      -3.213   1.060  -4.619  1.00  0.00     0.007 C   
ATOM     11  C3  UNL     1      -4.254   1.611  -2.410  1.00  0.00     0.007 C   
ENDBRANCH   8   9
ENDBRANCH   7   8
BRANCH   7  12
ATOM     12  N1  UNL     1      -0.743   1.360  -0.932  1.00  0.00     0.249 N   
ATOM     13  H11 UNL     1       0.156   0.954  -1.238  1.00  0.00     0.199 HD  
ATOM     14  H12 UNL     1      -0.927   2.143  -1.563  1.00  0.00     0.199 HD  
BRANCH  12  15
ATOM     15  C6  UNL     1      -0.538   1.891   0.446  1.00  0.00     0.164 C   
BRANCH  15  16
ATOM     16  C7  UNL     1       0.727   2.700   0.512  1.00  0.00    -0.002 A   
ATOM     17  C8  UNL     1       1.962   2.059   0.781  1.00  0.00     0.012 A   
ATOM     18  C12 UNL     1       0.706   4.082   0.252  1.00  0.00     0.045 A   
ATOM     19  C9  UNL     1       3.159   2.784   0.806  1.00  0.00     0.037 A   
ATOM     20  C11 UNL     1       1.908   4.765   0.276  1.00  0.00     0.109 A   
ATOM     21  C10 UNL     1       3.098   4.136   0.548  1.00  0.00     0.108 A   
ATOM     22  O1  UNL     1       2.064   6.098   0.048  1.00  0.00    -0.316 OA  
ATOM     23  O2  UNL     1       4.154   4.992   0.529  1.00  0.00    -0.316 OA  
ATOM     24  C13 UNL     1       3.497   6.238   0.205  1.00  0.00     0.337 C   
ENDBRANCH  15  16
ENDBRANCH  12  15
ENDBRANCH   7  12
ENDBRANCH   1   7
BRANCH   3  25
ATOM     25  C16 UNL     1      -0.716  -4.174   1.145  1.00  0.00     0.155 C   
BRANCH  25  26
ATOM     26  C17 UNL     1       0.195  -5.240   0.507  1.00  0.00     0.185 C   
BRANCH  26  27
ATOM     27  O3  UNL     1      -0.153  -6.534   1.009  1.00  0.00    -0.394 OA  
ATOM     28  H24 UNL     1       0.487  -7.173   0.644  1.00  0.00     0.210 HD  
ENDBRANCH  26  27
ENDBRANCH  25  26
BRANCH  25  29
ATOM     29  C18 UNL     1      -0.422  -3.915   2.620  1.00  0.00    -0.017 A   
ATOM     30  C19 UNL     1       0.835  -3.460   3.059  1.00  0.00     0.045 A   
ATOM     31  C23 UNL     1      -1.424  -4.122   3.584  1.00  0.00     0.045 A   
ATOM     32  C20 UNL     1       1.065  -3.218   4.414  1.00  0.00     0.126 A   
ATOM     33  C22 UNL     1      -1.168  -3.873   4.934  1.00  0.00     0.126 A   
ATOM     34  C21 UNL     1       0.072  -3.420   5.361  1.00  0.00     0.078 A   
ATOM     35  F1  UNL     1       2.268  -2.772   4.803  1.00  0.00    -0.207 F   
ATOM     36  F2  UNL     1      -2.146  -4.065   5.833  1.00  0.00    -0.207 F   
ENDBRANCH  25  29
ENDBRANCH   3  25
TORSDOF 10
