REMARK SMILES CC(C)C[C@H]([NH2+]Cc1ccc2c(c1)OCO2)c1cn([C@H](CO)c2cc(F)cc(F)c2)nn1
REMARK SMILES IDX 17 1 18 2 19 3 31 4 32 5 5 7 4 8 2 9 1 10 3 11 6 12 7 15
REMARK SMILES IDX 8 16 9 17 13 18 10 19 12 20 11 21 14 22 16 23 15 24 20 25
REMARK SMILES IDX 21 26 22 27 23 29 24 30 30 31 25 32 28 33 27 34 26 35 29 36
REMARK H PARENT 18 6 6 13 6 14 22 28
ROOT
ATOM     1   C14 UNL     1       0.507  -0.888  -0.489  1.00  0.00     0.127 A   
ATOM     2   C15 UNL     1      -0.629  -1.505  -0.961  1.00  0.00     0.046 A   
ATOM     3   N2  UNL     1      -1.293  -1.897   0.171  1.00  0.00    -0.202 N   
ATOM     4   N3  UNL     1      -0.625  -1.497   1.274  1.00  0.00    -0.075 NA  
ATOM     5   N4  UNL     1       0.484  -0.893   0.882  1.00  0.00    -0.132 NA  
ATOM     6   H20 UNL     1      -1.006  -1.720  -1.951  1.00  0.00     0.083 HD  
ENDROOT
BRANCH   1   7
ATOM     7   C5  UNL     1       1.641  -0.236  -1.206  1.00  0.00     0.114 C   
BRANCH   7   8
ATOM     8   C4  UNL     1       2.839  -1.186  -1.405  1.00  0.00     0.064 C   
BRANCH   8   9
ATOM     9   C2  UNL     1       2.565  -2.420  -2.289  1.00  0.00    -0.012 C   
ATOM     10  C1  UNL     1       3.814  -3.306  -2.340  1.00  0.00     0.007 C   
ATOM     11  C3  UNL     1       2.148  -2.039  -3.710  1.00  0.00     0.007 C   
ENDBRANCH   8   9
ENDBRANCH   7   8
BRANCH   7  12
ATOM     12  N1  UNL     1       2.147   0.941  -0.404  1.00  0.00     0.249 N   
ATOM     13  H11 UNL     1       3.077   1.237  -0.719  1.00  0.00     0.199 HD  
ATOM     14  H12 UNL     1       2.261   0.609   0.566  1.00  0.00     0.199 HD  
BRANCH  12  15
ATOM     15  C6  UNL     1       1.244   2.125  -0.365  1.00  0.00     0.164 C   
BRANCH  15  16
ATOM     16  C7  UNL     1       1.849   3.216   0.472  1.00  0.00    -0.002 A   
ATOM     17  C8  UNL     1       2.559   4.279  -0.135  1.00  0.00     0.012 A   
ATOM     18  C12 UNL     1       1.755   3.157   1.874  1.00  0.00     0.045 A   
ATOM     19  C9  UNL     1       3.165   5.273   0.642  1.00  0.00     0.037 A   
ATOM     20  C11 UNL     1       2.363   4.154   2.608  1.00  0.00     0.109 A   
ATOM     21  C10 UNL     1       3.050   5.180   2.010  1.00  0.00     0.108 A   
ATOM     22  O1  UNL     1       2.377   4.239   3.964  1.00  0.00    -0.316 OA  
ATOM     23  O2  UNL     1       3.578   6.046   2.913  1.00  0.00    -0.316 OA  
ATOM     24  C13 UNL     1       3.121   5.464   4.153  1.00  0.00     0.337 C   
ENDBRANCH  15  16
ENDBRANCH  12  15
ENDBRANCH   7  12
ENDBRANCH   1   7
BRANCH   3  25
ATOM     25  C16 UNL     1      -2.563  -2.612   0.295  1.00  0.00     0.155 C   
BRANCH  25  26
ATOM     26  C17 UNL     1      -2.416  -4.098  -0.096  1.00  0.00     0.185 C   
BRANCH  26  27
ATOM     27  O3  UNL     1      -1.946  -4.282  -1.432  1.00  0.00    -0.394 OA  
ATOM     28  H24 UNL     1      -1.959  -5.243  -1.609  1.00  0.00     0.210 HD  
ENDBRANCH  26  27
ENDBRANCH  25  26
BRANCH  25  29
ATOM     29  C18 UNL     1      -3.685  -1.820  -0.368  1.00  0.00    -0.017 A   
ATOM     30  C19 UNL     1      -4.202  -2.128  -1.636  1.00  0.00     0.045 A   
ATOM     31  C23 UNL     1      -4.222  -0.706   0.304  1.00  0.00     0.045 A   
ATOM     32  C20 UNL     1      -5.220  -1.353  -2.195  1.00  0.00     0.126 A   
ATOM     33  C22 UNL     1      -5.240   0.054  -0.274  1.00  0.00     0.126 A   
ATOM     34  C21 UNL     1      -5.748  -0.262  -1.523  1.00  0.00     0.078 A   
ATOM     35  F1  UNL     1      -5.686  -1.666  -3.409  1.00  0.00    -0.207 F   
ATOM     36  F2  UNL     1      -5.721   1.113   0.387  1.00  0.00    -0.207 F   
ENDBRANCH  25  29
ENDBRANCH   3  25
TORSDOF 10
