REMARK SMILES CC(C)[C@H]([NH2+]Cc1ccc2c(c1)OCO2)c1cn(-c2ccccc2S(N)(=O)=O)nn1
REMARK SMILES IDX 16 1 17 2 18 3 29 4 30 5 4 6 2 7 1 8 3 9 5 10 6 13 7 14 8 15
REMARK SMILES IDX 12 16 9 17 11 18 10 19 13 20 15 21 14 22 19 23 20 24 24 25
REMARK SMILES IDX 21 26 23 27 22 28 25 29 27 30 28 31 26 32
REMARK H PARENT 5 11 5 12 26 33 26 34
ROOT
ATOM     1   C13 UNL     1      -0.074   2.020  -0.219  1.00  0.00     0.127 A   
ATOM     2   C14 UNL     1       0.783   2.954  -0.757  1.00  0.00     0.135 A   
ATOM     3   N2  UNL     1       2.044   2.544  -0.363  1.00  0.00    -0.168 N   
ATOM     4   N4  UNL     1       1.918   1.476   0.456  1.00  0.00    -0.071 NA  
ATOM     5   N5  UNL     1       0.644   1.143   0.542  1.00  0.00    -0.131 NA  
ENDROOT
BRANCH   1   6
ATOM     6   C4  UNL     1      -1.544   1.798  -0.383  1.00  0.00     0.117 C   
BRANCH   6   7
ATOM     7   C2  UNL     1      -2.385   2.675   0.580  1.00  0.00     0.037 C   
ATOM     8   C1  UNL     1      -3.868   2.679   0.192  1.00  0.00     0.014 C   
ATOM     9   C3  UNL     1      -2.240   2.293   2.058  1.00  0.00     0.014 C   
ENDBRANCH   6   7
BRANCH   6  10
ATOM     10  N1  UNL     1      -1.865   0.340  -0.184  1.00  0.00     0.249 N   
ATOM     11  H9  UNL     1      -2.853   0.180   0.033  1.00  0.00     0.199 HD  
ATOM     12  H10 UNL     1      -1.334   0.032   0.646  1.00  0.00     0.199 HD  
BRANCH  10  13
ATOM     13  C5  UNL     1      -1.461  -0.560  -1.303  1.00  0.00     0.164 C   
BRANCH  13  14
ATOM     14  C6  UNL     1      -1.659  -1.997  -0.914  1.00  0.00    -0.002 A   
ATOM     15  C7  UNL     1      -0.626  -2.696  -0.244  1.00  0.00     0.012 A   
ATOM     16  C11 UNL     1      -2.886  -2.637  -1.157  1.00  0.00     0.045 A   
ATOM     17  C8  UNL     1      -0.806  -4.021   0.168  1.00  0.00     0.037 A   
ATOM     18  C10 UNL     1      -3.030  -3.943  -0.736  1.00  0.00     0.109 A   
ATOM     19  C9  UNL     1      -2.021  -4.616  -0.093  1.00  0.00     0.108 A   
ATOM     20  O1  UNL     1      -4.146  -4.703  -0.890  1.00  0.00    -0.316 OA  
ATOM     21  O2  UNL     1      -2.373  -5.886   0.236  1.00  0.00    -0.316 OA  
ATOM     22  C12 UNL     1      -3.715  -5.947  -0.291  1.00  0.00     0.337 C   
ENDBRANCH  13  14
ENDBRANCH  10  13
ENDBRANCH   6  10
ENDBRANCH   1   6
BRANCH   3  23
ATOM     23  C15 UNL     1       3.296   3.140  -0.645  1.00  0.00     0.181 A   
ATOM     24  C16 UNL     1       3.337   4.528  -0.875  1.00  0.00     0.039 A   
ATOM     25  C20 UNL     1       4.497   2.405  -0.652  1.00  0.00     0.362 A   
ATOM     26  C17 UNL     1       4.561   5.176  -1.053  1.00  0.00     0.003 A   
ATOM     27  C19 UNL     1       5.721   3.072  -0.821  1.00  0.00     0.140 A   
ATOM     28  C18 UNL     1       5.750   4.454  -1.011  1.00  0.00     0.013 A   
BRANCH  25  29
ATOM     29  S1  UNL     1       4.503   0.625  -0.697  1.00  0.00    -0.112 S   
ATOM     30  O3  UNL     1       3.463   0.189  -1.605  1.00  0.00    -0.479 OA  
ATOM     31  O4  UNL     1       4.659   0.121   0.645  1.00  0.00    -0.479 OA  
BRANCH  29  32
ATOM     32  N3  UNL     1       5.930   0.232  -1.496  1.00  0.00    -0.094 NA  
ATOM     33  H23 UNL     1       5.721  -0.257  -2.368  1.00  0.00     0.263 HD  
ATOM     34  H24 UNL     1       6.537  -0.303  -0.871  1.00  0.00     0.263 HD  
ENDBRANCH  29  32
ENDBRANCH  25  29
ENDBRANCH   3  23
TORSDOF 8
