REMARK SMILES Cc1csc(C[C@H](C)n2cc([C@@H]([NH2+]Cc3ccc4c(c3)OCO4)C3CCCCC3)nn2)n1
REMARK SMILES IDX 9 1 10 2 11 3 30 4 31 5 7 7 8 8 6 9 5 10 2 11 3 12 32 13
REMARK SMILES IDX 4 14 1 15 12 16 13 17 14 20 15 21 16 22 20 23 17 24 19 25
REMARK SMILES IDX 18 26 21 27 23 28 22 29 24 30 25 31 29 32 26 33 28 34 27 35
REMARK H PARENT 10 6 13 18 13 19
ROOT
ATOM     1   N1  UNL     1      -1.996  -0.276   3.053  1.00  0.00    -0.209 N   
ATOM     2   C8  UNL     1      -0.950   0.508   2.654  1.00  0.00     0.046 A   
ATOM     3   C9  UNL     1      -1.107   0.593   1.289  1.00  0.00     0.127 A   
ATOM     4   N3  UNL     1      -2.248  -0.072   0.922  1.00  0.00    -0.132 NA  
ATOM     5   N4  UNL     1      -2.796  -0.578   2.013  1.00  0.00    -0.076 NA  
ATOM     6   H11 UNL     1      -0.181   0.840   3.337  1.00  0.00     0.083 HD  
ENDROOT
BRANCH   1   7
ATOM     7   C6  UNL     1      -2.231  -0.848   4.372  1.00  0.00     0.103 C   
ATOM     8   C7  UNL     1      -3.623  -0.478   4.890  1.00  0.00     0.031 C   
BRANCH   7   9
ATOM     9   C5  UNL     1      -2.034  -2.373   4.363  1.00  0.00     0.088 C   
BRANCH   9  10
ATOM     10  C4  UNL     1      -0.588  -2.755   4.194  1.00  0.00     0.080 A   
ATOM     11  C2  UNL     1       1.406  -3.054   3.268  1.00  0.00     0.045 A   
ATOM     12  C3  UNL     1       1.642  -3.646   4.494  1.00  0.00     0.070 A   
ATOM     13  N5  UNL     1       0.132  -2.525   3.112  1.00  0.00    -0.250 NA  
ATOM     14  S1  UNL     1       0.243  -3.550   5.474  1.00  0.00    -0.081 S   
ATOM     15  C1  UNL     1       2.371  -2.960   2.144  1.00  0.00     0.067 C   
ENDBRANCH   9  10
ENDBRANCH   7   9
ENDBRANCH   1   7
BRANCH   3  16
ATOM     16  C10 UNL     1      -0.195   1.128   0.237  1.00  0.00     0.117 C   
BRANCH  16  17
ATOM     17  N2  UNL     1      -0.015   0.040  -0.790  1.00  0.00     0.249 N   
ATOM     18  H13 UNL     1       0.229  -0.818  -0.273  1.00  0.00     0.199 HD  
ATOM     19  H14 UNL     1      -0.938  -0.190  -1.185  1.00  0.00     0.199 HD  
BRANCH  17  20
ATOM     20  C11 UNL     1       0.986   0.260  -1.857  1.00  0.00     0.164 C   
BRANCH  20  21
ATOM     21  C12 UNL     1       1.348  -1.032  -2.531  1.00  0.00    -0.002 A   
ATOM     22  C13 UNL     1       2.459  -1.783  -2.077  1.00  0.00     0.012 A   
ATOM     23  C17 UNL     1       0.562  -1.526  -3.588  1.00  0.00     0.045 A   
ATOM     24  C14 UNL     1       2.795  -3.002  -2.675  1.00  0.00     0.037 A   
ATOM     25  C16 UNL     1       0.921  -2.732  -4.154  1.00  0.00     0.109 A   
ATOM     26  C15 UNL     1       2.006  -3.449  -3.712  1.00  0.00     0.108 A   
ATOM     27  O1  UNL     1       0.275  -3.348  -5.179  1.00  0.00    -0.316 OA  
ATOM     28  O2  UNL     1       2.182  -4.603  -4.404  1.00  0.00    -0.316 OA  
ATOM     29  C18 UNL     1       1.091  -4.529  -5.347  1.00  0.00     0.337 C   
ENDBRANCH  20  21
ENDBRANCH  17  20
ENDBRANCH  16  17
BRANCH  16  30
ATOM     30  C19 UNL     1      -0.658   2.455  -0.415  1.00  0.00     0.043 C   
ATOM     31  C20 UNL     1      -0.710   3.597   0.621  1.00  0.00     0.010 C   
ATOM     32  C24 UNL     1      -1.995   2.371  -1.177  1.00  0.00     0.010 C   
ATOM     33  C21 UNL     1      -1.077   4.931  -0.027  1.00  0.00     0.001 C   
ATOM     34  C23 UNL     1      -2.359   3.709  -1.822  1.00  0.00     0.001 C   
ATOM     35  C22 UNL     1      -2.388   4.840  -0.800  1.00  0.00     0.000 C   
ENDBRANCH  16  30
ENDBRANCH   3  16
TORSDOF 8
