REMARK SMILES Cc1cc(Cn2cc([C@@H]([NH2+]Cc3ccc4c(c3)OCO4)C3CCCCC3)nn2)cnc1Cl
REMARK SMILES IDX 6 1 7 2 8 3 27 4 28 5 5 7 4 8 2 9 3 10 31 11 30 12 29 13
REMARK SMILES IDX 1 14 32 15 9 16 10 17 11 20 12 21 13 22 17 23 14 24 16 25
REMARK SMILES IDX 15 26 18 27 20 28 19 29 21 30 22 31 26 32 23 33 25 34 24 35
REMARK H PARENT 7 6 10 18 10 19
ROOT
ATOM     1   N1  UNL     1       2.127  -0.632   1.169  1.00  0.00    -0.208 N   
ATOM     2   C6  UNL     1       1.197  -1.095   0.280  1.00  0.00     0.046 A   
ATOM     3   C7  UNL     1       1.891  -1.175  -0.908  1.00  0.00     0.127 A   
ATOM     4   N3  UNL     1       3.185  -0.763  -0.708  1.00  0.00    -0.132 NA  
ATOM     5   N4  UNL     1       3.321  -0.445   0.568  1.00  0.00    -0.076 NA  
ATOM     6   H7  UNL     1       0.164  -1.278   0.559  1.00  0.00     0.083 HD  
ENDROOT
BRANCH   1   7
ATOM     7   C5  UNL     1       1.952  -0.329   2.580  1.00  0.00     0.171 C   
BRANCH   7   8
ATOM     8   C4  UNL     1       1.506   1.095   2.786  1.00  0.00    -0.010 A   
ATOM     9   C2  UNL     1      -0.152   2.730   3.497  1.00  0.00    -0.013 A   
ATOM     10  C3  UNL     1       0.239   1.397   3.313  1.00  0.00     0.013 A   
ATOM     11  C24 UNL     1       0.766   3.716   3.131  1.00  0.00     0.131 A   
ATOM     12  N5  UNL     1       1.987   3.464   2.607  1.00  0.00    -0.244 NA  
ATOM     13  C23 UNL     1       2.335   2.168   2.464  1.00  0.00     0.118 A   
ATOM     14  C1  UNL     1      -1.493   3.054   4.087  1.00  0.00     0.048 C   
ATOM     15  CL1 UNL     1       0.433   5.398   3.277  1.00  0.00    -0.062 Cl  
ENDBRANCH   7   8
ENDBRANCH   1   7
BRANCH   3  16
ATOM     16  C8  UNL     1       1.453  -1.544  -2.289  1.00  0.00     0.117 C   
BRANCH  16  17
ATOM     17  N2  UNL     1       1.856  -0.408  -3.216  1.00  0.00     0.249 N   
ATOM     18  H9  UNL     1       2.328  -0.768  -4.049  1.00  0.00     0.199 HD  
ATOM     19  H10 UNL     1       2.587   0.125  -2.719  1.00  0.00     0.199 HD  
BRANCH  17  20
ATOM     20  C9  UNL     1       0.776   0.525  -3.630  1.00  0.00     0.164 C   
BRANCH  20  21
ATOM     21  C10 UNL     1       0.068   1.197  -2.485  1.00  0.00    -0.002 A   
ATOM     22  C11 UNL     1       0.712   2.202  -1.723  1.00  0.00     0.012 A   
ATOM     23  C15 UNL     1      -1.240   0.804  -2.144  1.00  0.00     0.045 A   
ATOM     24  C12 UNL     1       0.064   2.809  -0.639  1.00  0.00     0.037 A   
ATOM     25  C14 UNL     1      -1.846   1.416  -1.066  1.00  0.00     0.109 A   
ATOM     26  C13 UNL     1      -1.215   2.392  -0.336  1.00  0.00     0.108 A   
ATOM     27  O1  UNL     1      -3.094   1.134  -0.598  1.00  0.00    -0.316 OA  
ATOM     28  O2  UNL     1      -1.993   2.857   0.678  1.00  0.00    -0.316 OA  
ATOM     29  C16 UNL     1      -3.205   2.099   0.473  1.00  0.00     0.337 C   
ENDBRANCH  20  21
ENDBRANCH  17  20
ENDBRANCH  16  17
BRANCH  16  30
ATOM     30  C17 UNL     1       2.098  -2.866  -2.802  1.00  0.00     0.043 C   
ATOM     31  C18 UNL     1       1.548  -3.306  -4.180  1.00  0.00     0.010 C   
ATOM     32  C22 UNL     1       1.932  -4.047  -1.816  1.00  0.00     0.010 C   
ATOM     33  C19 UNL     1       0.109  -3.830  -4.118  1.00  0.00     0.001 C   
ATOM     34  C21 UNL     1       0.490  -4.545  -1.723  1.00  0.00     0.001 C   
ATOM     35  C20 UNL     1      -0.045  -4.948  -3.093  1.00  0.00     0.000 C   
ENDBRANCH  16  30
ENDBRANCH   3  16
TORSDOF 7
