REMARK SMILES Cc1cccnc1CCn1cc([C@@H]([NH2+]Cc2ccc3c(c2)OCO3)C2CCCCC2)nn1
REMARK SMILES IDX 10 1 11 2 12 3 31 4 32 5 9 7 8 8 7 9 2 10 3 11 4 12 6 13
REMARK SMILES IDX 5 14 1 15 13 16 14 17 15 20 16 21 17 22 21 23 18 24 20 25
REMARK SMILES IDX 19 26 22 27 24 28 23 29 25 30 26 31 30 32 27 33 29 34 28 35
REMARK H PARENT 11 6 14 18 14 19
ROOT
ATOM     1   N2  UNL     1       2.595   0.470   0.782  1.00  0.00    -0.212 N   
ATOM     2   C9  UNL     1       1.284   0.832   0.665  1.00  0.00     0.045 A   
ATOM     3   C10 UNL     1       0.608  -0.151   1.351  1.00  0.00     0.127 A   
ATOM     4   N4  UNL     1       1.511  -1.041   1.874  1.00  0.00    -0.132 NA  
ATOM     5   N5  UNL     1       2.723  -0.653   1.514  1.00  0.00    -0.076 NA  
ATOM     6   H11 UNL     1       0.971   1.694   0.093  1.00  0.00     0.083 HD  
ENDROOT
BRANCH   1   7
ATOM     7   C8  UNL     1       3.768   1.130   0.246  1.00  0.00     0.140 C   
BRANCH   7   8
ATOM     8   C7  UNL     1       4.120   0.657  -1.161  1.00  0.00     0.078 C   
BRANCH   8   9
ATOM     9   C6  UNL     1       3.330   1.399  -2.215  1.00  0.00     0.045 A   
ATOM     10  C2  UNL     1       3.834   2.544  -2.851  1.00  0.00    -0.029 A   
ATOM     11  C3  UNL     1       3.033   3.157  -3.821  1.00  0.00     0.007 A   
ATOM     12  C4  UNL     1       1.781   2.638  -4.121  1.00  0.00     0.020 A   
ATOM     13  N1  UNL     1       2.094   0.898  -2.479  1.00  0.00    -0.261 NA  
ATOM     14  C5  UNL     1       1.361   1.518  -3.433  1.00  0.00     0.111 A   
ATOM     15  C1  UNL     1       5.195   3.107  -2.559  1.00  0.00     0.046 C   
ENDBRANCH   8   9
ENDBRANCH   7   8
ENDBRANCH   1   7
BRANCH   3  16
ATOM     16  C11 UNL     1      -0.856  -0.417   1.509  1.00  0.00     0.117 C   
BRANCH  16  17
ATOM     17  N3  UNL     1      -1.084  -1.911   1.362  1.00  0.00     0.249 N   
ATOM     18  H13 UNL     1      -2.027  -2.174   1.647  1.00  0.00     0.199 HD  
ATOM     19  H14 UNL     1      -0.423  -2.363   2.010  1.00  0.00     0.199 HD  
BRANCH  17  20
ATOM     20  C12 UNL     1      -0.834  -2.483   0.003  1.00  0.00     0.164 C   
BRANCH  20  21
ATOM     21  C13 UNL     1      -1.840  -2.015  -1.011  1.00  0.00    -0.002 A   
ATOM     22  C14 UNL     1      -3.171  -2.498  -0.981  1.00  0.00     0.012 A   
ATOM     23  C18 UNL     1      -1.472  -1.059  -1.973  1.00  0.00     0.045 A   
ATOM     24  C15 UNL     1      -4.124  -2.032  -1.893  1.00  0.00     0.037 A   
ATOM     25  C17 UNL     1      -2.436  -0.619  -2.856  1.00  0.00     0.109 A   
ATOM     26  C16 UNL     1      -3.725  -1.091  -2.817  1.00  0.00     0.108 A   
ATOM     27  O1  UNL     1      -2.253   0.305  -3.836  1.00  0.00    -0.316 OA  
ATOM     28  O2  UNL     1      -4.513  -0.529  -3.769  1.00  0.00    -0.316 OA  
ATOM     29  C19 UNL     1      -3.567   0.331  -4.438  1.00  0.00     0.337 C   
ENDBRANCH  20  21
ENDBRANCH  17  20
ENDBRANCH  16  17
BRANCH  16  30
ATOM     30  C20 UNL     1      -1.394   0.054   2.897  1.00  0.00     0.043 C   
ATOM     31  C21 UNL     1      -2.884  -0.272   3.147  1.00  0.00     0.010 C   
ATOM     32  C25 UNL     1      -1.215   1.577   3.107  1.00  0.00     0.010 C   
ATOM     33  C22 UNL     1      -3.818   0.518   2.234  1.00  0.00     0.001 C   
ATOM     34  C24 UNL     1      -2.127   2.409   2.206  1.00  0.00     0.001 C   
ATOM     35  C23 UNL     1      -3.594   2.021   2.372  1.00  0.00     0.000 C   
ENDBRANCH  16  30
ENDBRANCH   3  16
TORSDOF 8
