REMARK SMILES O[C@H](Cn1cc([C@@H]([NH2+]Cc2ccc3c(c2)OCO3)C2CCCC2)nn1)c1ccccc1F
REMARK SMILES IDX 4 1 5 2 6 3 24 4 25 5 3 7 2 8 1 9 26 11 27 12 31 13 28 14
REMARK SMILES IDX 30 15 29 16 32 17 7 18 8 19 9 22 10 23 11 24 15 25 12 26
REMARK SMILES IDX 14 27 13 28 16 29 18 30 17 31 19 32 20 33 23 34 21 35 22 36
REMARK H PARENT 5 6 1 10 8 20 8 21
ROOT
ATOM     1   N1  UNL     1      -2.561  -0.039  -0.572  1.00  0.00    -0.209 N   
ATOM     2   C3  UNL     1      -1.545   0.065   0.337  1.00  0.00     0.045 A   
ATOM     3   C4  UNL     1      -0.455  -0.454  -0.328  1.00  0.00     0.127 A   
ATOM     4   N3  UNL     1      -0.851  -0.892  -1.566  1.00  0.00    -0.132 NA  
ATOM     5   N4  UNL     1      -2.145  -0.651  -1.694  1.00  0.00    -0.076 NA  
ATOM     6   H5  UNL     1      -1.679   0.520   1.309  1.00  0.00     0.083 HD  
ENDROOT
BRANCH   1   7
ATOM     7   C2  UNL     1      -3.922   0.432  -0.454  1.00  0.00     0.170 C   
BRANCH   7   8
ATOM     8   C1  UNL     1      -4.152   1.764  -1.175  1.00  0.00     0.167 C   
BRANCH   8   9
ATOM     9   O1  UNL     1      -5.563   2.010  -1.224  1.00  0.00    -0.387 OA  
ATOM     10  H1  UNL     1      -5.689   2.869  -1.667  1.00  0.00     0.211 HD  
ENDBRANCH   8   9
BRANCH   8  11
ATOM     11  C19 UNL     1      -3.469   2.926  -0.488  1.00  0.00     0.018 A   
ATOM     12  C20 UNL     1      -4.040   3.562   0.626  1.00  0.00     0.009 A   
ATOM     13  C24 UNL     1      -2.223   3.375  -0.939  1.00  0.00     0.129 A   
ATOM     14  C21 UNL     1      -3.381   4.624   1.252  1.00  0.00     0.001 A   
ATOM     15  C23 UNL     1      -1.562   4.432  -0.320  1.00  0.00     0.039 A   
ATOM     16  C22 UNL     1      -2.146   5.062   0.776  1.00  0.00     0.003 A   
ATOM     17  F1  UNL     1      -1.632   2.768  -1.978  1.00  0.00    -0.207 F   
ENDBRANCH   8  11
ENDBRANCH   7   8
ENDBRANCH   1   7
BRANCH   3  18
ATOM     18  C5  UNL     1       0.981  -0.586   0.071  1.00  0.00     0.117 C   
BRANCH  18  19
ATOM     19  N2  UNL     1       1.688  -1.528  -0.867  1.00  0.00     0.249 N   
ATOM     20  H7  UNL     1       1.289  -1.352  -1.804  1.00  0.00     0.199 HD  
ATOM     21  H8  UNL     1       2.690  -1.331  -0.949  1.00  0.00     0.199 HD  
BRANCH  19  22
ATOM     22  C6  UNL     1       1.484  -2.974  -0.582  1.00  0.00     0.164 C   
BRANCH  22  23
ATOM     23  C7  UNL     1       2.071  -3.816  -1.679  1.00  0.00    -0.002 A   
ATOM     24  C8  UNL     1       3.396  -4.301  -1.585  1.00  0.00     0.012 A   
ATOM     25  C12 UNL     1       1.314  -4.083  -2.834  1.00  0.00     0.045 A   
ATOM     26  C9  UNL     1       3.960  -5.055  -2.621  1.00  0.00     0.037 A   
ATOM     27  C11 UNL     1       1.900  -4.827  -3.837  1.00  0.00     0.109 A   
ATOM     28  C10 UNL     1       3.185  -5.300  -3.734  1.00  0.00     0.108 A   
ATOM     29  O2  UNL     1       1.312  -5.174  -5.012  1.00  0.00    -0.316 OA  
ATOM     30  O3  UNL     1       3.566  -6.007  -4.829  1.00  0.00    -0.316 OA  
ATOM     31  C13 UNL     1       2.369  -5.940  -5.632  1.00  0.00     0.337 C   
ENDBRANCH  22  23
ENDBRANCH  19  22
ENDBRANCH  18  19
BRANCH  18  32
ATOM     32  C14 UNL     1       1.694   0.781   0.098  1.00  0.00     0.043 C   
ATOM     33  C15 UNL     1       3.108   0.749   0.706  1.00  0.00     0.010 C   
ATOM     34  C18 UNL     1       1.872   1.475  -1.257  1.00  0.00     0.010 C   
ATOM     35  C16 UNL     1       3.944   1.741  -0.104  1.00  0.00     0.001 C   
ATOM     36  C17 UNL     1       2.953   2.504  -0.969  1.00  0.00     0.001 C   
ENDBRANCH  18  32
ENDBRANCH   3  18
TORSDOF 9
