REMARK SMILES O[C@@H](Cn1cc([C@@H]([NH2+]Cc2ccc3c(c2)OCO3)C2CCCC2)nn1)c1ccccc1F
REMARK SMILES IDX 4 1 5 2 6 3 24 4 25 5 3 7 2 8 1 9 26 11 27 12 31 13 28 14
REMARK SMILES IDX 30 15 29 16 32 17 7 18 8 19 9 22 10 23 11 24 15 25 12 26
REMARK SMILES IDX 14 27 13 28 16 29 18 30 17 31 19 32 20 33 23 34 21 35 22 36
REMARK H PARENT 5 6 1 10 8 20 8 21
ROOT
ATOM     1   N1  UNL     1      -0.233   3.043   0.657  1.00  0.00    -0.209 N   
ATOM     2   C3  UNL     1      -0.863   2.025   1.317  1.00  0.00     0.045 A   
ATOM     3   C4  UNL     1       0.145   1.119   1.565  1.00  0.00     0.127 A   
ATOM     4   N3  UNL     1       1.323   1.609   1.060  1.00  0.00    -0.132 NA  
ATOM     5   N4  UNL     1       1.080   2.789   0.518  1.00  0.00    -0.076 NA  
ATOM     6   H5  UNL     1      -1.927   2.030   1.511  1.00  0.00     0.083 HD  
ENDROOT
BRANCH   1   7
ATOM     7   C2  UNL     1      -0.809   4.242   0.091  1.00  0.00     0.170 C   
BRANCH   7   8
ATOM     8   C1  UNL     1      -0.919   4.179  -1.437  1.00  0.00     0.167 C   
BRANCH   8   9
ATOM     9   O1  UNL     1      -1.148   5.506  -1.925  1.00  0.00    -0.387 OA  
ATOM     10  H1  UNL     1      -1.227   5.449  -2.896  1.00  0.00     0.211 HD  
ENDBRANCH   8   9
BRANCH   8  11
ATOM     11  C19 UNL     1      -2.035   3.269  -1.908  1.00  0.00     0.018 A   
ATOM     12  C20 UNL     1      -3.358   3.727  -2.025  1.00  0.00     0.009 A   
ATOM     13  C24 UNL     1      -1.772   1.931  -2.221  1.00  0.00     0.129 A   
ATOM     14  C21 UNL     1      -4.373   2.870  -2.461  1.00  0.00     0.001 A   
ATOM     15  C23 UNL     1      -2.778   1.073  -2.660  1.00  0.00     0.039 A   
ATOM     16  C22 UNL     1      -4.084   1.545  -2.781  1.00  0.00     0.003 A   
ATOM     17  F1  UNL     1      -0.529   1.442  -2.081  1.00  0.00    -0.207 F   
ENDBRANCH   8  11
ENDBRANCH   7   8
ENDBRANCH   1   7
BRANCH   3  18
ATOM     18  C5  UNL     1       0.125  -0.256   2.150  1.00  0.00     0.117 C   
BRANCH  18  19
ATOM     19  N2  UNL     1       1.070  -1.133   1.364  1.00  0.00     0.249 N   
ATOM     20  H7  UNL     1       1.368  -1.955   1.897  1.00  0.00     0.199 HD  
ATOM     21  H8  UNL     1       1.920  -0.568   1.206  1.00  0.00     0.199 HD  
BRANCH  19  22
ATOM     22  C6  UNL     1       0.577  -1.559   0.025  1.00  0.00     0.164 C   
BRANCH  22  23
ATOM     23  C7  UNL     1       1.677  -2.232  -0.744  1.00  0.00    -0.002 A   
ATOM     24  C8  UNL     1       1.881  -3.628  -0.637  1.00  0.00     0.012 A   
ATOM     25  C12 UNL     1       2.557  -1.459  -1.526  1.00  0.00     0.045 A   
ATOM     26  C9  UNL     1       2.944  -4.250  -1.304  1.00  0.00     0.037 A   
ATOM     27  C11 UNL     1       3.595  -2.102  -2.169  1.00  0.00     0.109 A   
ATOM     28  C10 UNL     1       3.788  -3.457  -2.057  1.00  0.00     0.108 A   
ATOM     29  O2  UNL     1       4.528  -1.503  -2.960  1.00  0.00    -0.316 OA  
ATOM     30  O3  UNL     1       4.871  -3.883  -2.758  1.00  0.00    -0.316 OA  
ATOM     31  C13 UNL     1       5.338  -2.642  -3.335  1.00  0.00     0.337 C   
ENDBRANCH  22  23
ENDBRANCH  19  22
ENDBRANCH  18  19
BRANCH  18  32
ATOM     32  C14 UNL     1       0.527  -0.334   3.635  1.00  0.00     0.043 C   
ATOM     33  C15 UNL     1       1.944   0.130   3.987  1.00  0.00     0.010 C   
ATOM     34  C18 UNL     1      -0.387   0.448   4.595  1.00  0.00     0.010 C   
ATOM     35  C16 UNL     1       1.869   0.322   5.494  1.00  0.00     0.001 C   
ATOM     36  C17 UNL     1       0.525   1.007   5.690  1.00  0.00     0.001 C   
ENDBRANCH  18  32
ENDBRANCH   3  18
TORSDOF 9
