REMARK SMILES CC(C)(C)c1ocnc1Cn1cc([C@@H]([NH2+]Cc2ccc3c(c2)OCO3)C2CCCCC2)nn1
REMARK SMILES IDX 11 1 12 2 13 3 32 4 33 5 10 7 9 8 5 9 6 10 7 11 8 12 2 13
REMARK SMILES IDX 1 14 3 15 4 16 14 17 15 18 16 21 17 22 18 23 22 24 19 25
REMARK SMILES IDX 21 26 20 27 23 28 25 29 24 30 26 31 27 32 31 33 28 34 30 35
REMARK SMILES IDX 29 36
REMARK H PARENT 12 6 15 19 15 20
ROOT
ATOM     1   N2  UNL     1       1.688   0.681  -1.353  1.00  0.00    -0.206 N   
ATOM     2   C9  UNL     1       1.042  -0.104  -0.436  1.00  0.00     0.046 A   
ATOM     3   C10 UNL     1       0.056   0.711   0.070  1.00  0.00     0.127 A   
ATOM     4   N4  UNL     1       0.183   1.962  -0.481  1.00  0.00    -0.132 NA  
ATOM     5   N5  UNL     1       1.198   1.937  -1.330  1.00  0.00    -0.076 NA  
ATOM     6   H13 UNL     1       1.311  -1.140  -0.276  1.00  0.00     0.083 HD  
ENDROOT
BRANCH   1   7
ATOM     7   C8  UNL     1       2.796   0.331  -2.226  1.00  0.00     0.192 C   
BRANCH   7   8
ATOM     8   C7  UNL     1       2.419  -0.792  -3.122  1.00  0.00     0.089 A   
ATOM     9   C5  UNL     1       1.989  -0.797  -4.441  1.00  0.00     0.089 A   
ATOM     10  O1  UNL     1       1.802  -2.110  -4.793  1.00  0.00    -0.300 OA  
ATOM     11  C6  UNL     1       2.123  -2.819  -3.683  1.00  0.00     0.247 A   
ATOM     12  N1  UNL     1       2.485  -2.092  -2.652  1.00  0.00    -0.232 NA  
BRANCH   9  13
ATOM     13  C2  UNL     1       1.725   0.242  -5.504  1.00  0.00     0.011 C   
ATOM     14  C1  UNL     1       1.037  -0.381  -6.737  1.00  0.00     0.018 C   
ATOM     15  C3  UNL     1       3.058   0.862  -5.957  1.00  0.00     0.018 C   
ATOM     16  C4  UNL     1       0.802   1.346  -4.961  1.00  0.00     0.018 C   
ENDBRANCH   9  13
ENDBRANCH   7   8
ENDBRANCH   1   7
BRANCH   3  17
ATOM     17  C11 UNL     1      -1.012   0.455   1.082  1.00  0.00     0.117 C   
BRANCH  17  18
ATOM     18  N3  UNL     1      -1.314   1.724   1.853  1.00  0.00     0.249 N   
ATOM     19  H15 UNL     1      -2.205   1.636   2.349  1.00  0.00     0.199 HD  
ATOM     20  H16 UNL     1      -1.424   2.468   1.149  1.00  0.00     0.199 HD  
BRANCH  18  21
ATOM     21  C12 UNL     1      -0.262   2.181   2.809  1.00  0.00     0.164 C   
BRANCH  21  22
ATOM     22  C13 UNL     1      -0.096   1.256   3.982  1.00  0.00    -0.002 A   
ATOM     23  C14 UNL     1       1.055   0.438   4.088  1.00  0.00     0.012 A   
ATOM     24  C18 UNL     1      -1.094   1.174   4.969  1.00  0.00     0.045 A   
ATOM     25  C15 UNL     1       1.209  -0.454   5.155  1.00  0.00     0.037 A   
ATOM     26  C17 UNL     1      -0.911   0.284   6.006  1.00  0.00     0.109 A   
ATOM     27  C16 UNL     1       0.206  -0.509   6.097  1.00  0.00     0.108 A   
ATOM     28  O2  UNL     1      -1.778   0.078   7.032  1.00  0.00    -0.316 OA  
ATOM     29  O3  UNL     1       0.185  -1.312   7.191  1.00  0.00    -0.316 OA  
ATOM     30  C19 UNL     1      -1.063  -0.917   7.801  1.00  0.00     0.337 C   
ENDBRANCH  21  22
ENDBRANCH  18  21
ENDBRANCH  17  18
BRANCH  17  31
ATOM     31  C20 UNL     1      -2.344  -0.074   0.480  1.00  0.00     0.043 C   
ATOM     32  C21 UNL     1      -2.177  -1.488  -0.111  1.00  0.00     0.010 C   
ATOM     33  C25 UNL     1      -2.987   0.864  -0.561  1.00  0.00     0.010 C   
ATOM     34  C22 UNL     1      -3.502  -2.043  -0.630  1.00  0.00     0.001 C   
ATOM     35  C24 UNL     1      -4.307   0.301  -1.087  1.00  0.00     0.001 C   
ATOM     36  C23 UNL     1      -4.139  -1.106  -1.650  1.00  0.00     0.000 C   
ENDBRANCH  17  31
ENDBRANCH   3  17
TORSDOF 8
