REMARK SMILES Cc1nc(Cn2cc([C@@H]([NH2+]Cc3ccc4c(c3)OCO4)C(C)(C)C)nn2)oc1C
REMARK SMILES IDX 6 1 7 2 8 3 25 4 26 5 5 7 4 8 2 9 3 10 28 11 27 12 1 13
REMARK SMILES IDX 29 14 9 15 10 16 11 19 12 20 13 21 17 22 14 23 16 24 15 25
REMARK SMILES IDX 18 26 20 27 19 28 21 29 22 30 23 31 24 32
REMARK H PARENT 7 6 10 17 10 18
ROOT
ATOM     1   N2  UNL     1       0.560  -2.269  -1.805  1.00  0.00    -0.204 N   
ATOM     2   C5  UNL     1       1.182  -1.177  -1.260  1.00  0.00     0.046 A   
ATOM     3   C6  UNL     1       1.584  -1.610  -0.017  1.00  0.00     0.127 A   
ATOM     4   N4  UNL     1       1.261  -2.935   0.125  1.00  0.00    -0.132 NA  
ATOM     5   N5  UNL     1       0.643  -3.329  -0.976  1.00  0.00    -0.075 NA  
ATOM     6   H6  UNL     1       1.199  -0.216  -1.757  1.00  0.00     0.083 HD  
ENDROOT
BRANCH   1   7
ATOM     7   C4  UNL     1      -0.177  -2.350  -3.052  1.00  0.00     0.217 C   
BRANCH   7   8
ATOM     8   C3  UNL     1      -1.489  -1.677  -2.899  1.00  0.00     0.167 A   
ATOM     9   C2  UNL     1      -3.137  -0.396  -2.480  1.00  0.00     0.066 A   
ATOM     10  N1  UNL     1      -1.788  -0.563  -2.255  1.00  0.00    -0.229 NA  
ATOM     11  C20 UNL     1      -3.606  -1.438  -3.253  1.00  0.00     0.079 A   
ATOM     12  O3  UNL     1      -2.552  -2.264  -3.529  1.00  0.00    -0.297 OA  
ATOM     13  C1  UNL     1      -3.863   0.764  -1.919  1.00  0.00     0.069 C   
ATOM     14  C21 UNL     1      -4.915  -1.823  -3.809  1.00  0.00     0.075 C   
ENDBRANCH   7   8
ENDBRANCH   1   7
BRANCH   3  15
ATOM     15  C7  UNL     1       2.139  -0.848   1.145  1.00  0.00     0.120 C   
BRANCH  15  16
ATOM     16  N3  UNL     1       1.411  -1.276   2.406  1.00  0.00     0.250 N   
ATOM     17  H8  UNL     1       1.852  -0.877   3.237  1.00  0.00     0.199 HD  
ATOM     18  H9  UNL     1       1.507  -2.299   2.462  1.00  0.00     0.199 HD  
BRANCH  16  19
ATOM     19  C8  UNL     1      -0.057  -0.983   2.458  1.00  0.00     0.164 C   
BRANCH  19  20
ATOM     20  C9  UNL     1      -0.374   0.486   2.425  1.00  0.00    -0.002 A   
ATOM     21  C10 UNL     1      -0.085   1.308   3.541  1.00  0.00     0.012 A   
ATOM     22  C14 UNL     1      -0.941   1.058   1.271  1.00  0.00     0.045 A   
ATOM     23  C11 UNL     1      -0.349   2.682   3.508  1.00  0.00     0.037 A   
ATOM     24  C13 UNL     1      -1.188   2.415   1.272  1.00  0.00     0.109 A   
ATOM     25  C12 UNL     1      -0.899   3.204   2.358  1.00  0.00     0.108 A   
ATOM     26  O1  UNL     1      -1.725   3.123   0.244  1.00  0.00    -0.316 OA  
ATOM     27  O2  UNL     1      -1.217   4.508   2.150  1.00  0.00    -0.316 OA  
ATOM     28  C15 UNL     1      -1.763   4.450   0.815  1.00  0.00     0.337 C   
ENDBRANCH  19  20
ENDBRANCH  16  19
ENDBRANCH  15  16
BRANCH  15  29
ATOM     29  C16 UNL     1       3.691  -0.993   1.330  1.00  0.00     0.010 C   
ATOM     30  C17 UNL     1       4.128  -2.431   1.669  1.00  0.00     0.017 C   
ATOM     31  C18 UNL     1       4.417  -0.557   0.036  1.00  0.00     0.017 C   
ATOM     32  C19 UNL     1       4.185  -0.060   2.461  1.00  0.00     0.017 C   
ENDBRANCH  15  29
ENDBRANCH   3  15
TORSDOF 7
