REMARK SMILES CC(C)C[C@H]([NH2+]Cc1ccc2c(c1)OCO2)c1cn(Cc2ccc3c(ccn3C)c2)nn1
REMARK SMILES IDX 17 1 18 2 19 3 31 4 32 5 5 7 4 8 2 9 1 10 3 11 6 12 7 15
REMARK SMILES IDX 8 16 9 17 13 18 10 19 12 20 11 21 14 22 16 23 15 24 20 25
REMARK SMILES IDX 21 26 22 27 30 28 23 29 25 30 24 31 26 32 28 33 27 34 29 35
REMARK H PARENT 18 6 6 13 6 14
ROOT
ATOM     1   C14 UNL     1      -0.478  -0.582   1.876  1.00  0.00     0.127 A   
ATOM     2   C15 UNL     1      -1.711   0.019   2.013  1.00  0.00     0.046 A   
ATOM     3   N2  UNL     1      -1.410   1.314   2.341  1.00  0.00    -0.208 N   
ATOM     4   N4  UNL     1      -0.075   1.491   2.418  1.00  0.00    -0.076 NA  
ATOM     5   N5  UNL     1       0.505   0.339   2.121  1.00  0.00    -0.132 NA  
ATOM     6   H20 UNL     1      -2.729  -0.327   1.897  1.00  0.00     0.083 HD  
ENDROOT
BRANCH   1   7
ATOM     7   C5  UNL     1      -0.098  -1.961   1.449  1.00  0.00     0.114 C   
BRANCH   7   8
ATOM     8   C4  UNL     1       0.226  -2.887   2.637  1.00  0.00     0.064 C   
BRANCH   8   9
ATOM     9   C2  UNL     1      -0.944  -3.147   3.607  1.00  0.00    -0.012 C   
ATOM     10  C1  UNL     1      -0.473  -4.050   4.755  1.00  0.00     0.007 C   
ATOM     11  C3  UNL     1      -2.150  -3.782   2.912  1.00  0.00     0.007 C   
ENDBRANCH   8   9
ENDBRANCH   7   8
BRANCH   7  12
ATOM     12  N1  UNL     1       1.142  -1.903   0.586  1.00  0.00     0.249 N   
ATOM     13  H11 UNL     1       1.822  -1.305   1.081  1.00  0.00     0.199 HD  
ATOM     14  H12 UNL     1       1.580  -2.826   0.498  1.00  0.00     0.199 HD  
BRANCH  12  15
ATOM     15  C6  UNL     1       0.942  -1.318  -0.769  1.00  0.00     0.164 C   
BRANCH  15  16
ATOM     16  C7  UNL     1       2.243  -1.258  -1.516  1.00  0.00    -0.002 A   
ATOM     17  C8  UNL     1       2.644  -2.322  -2.357  1.00  0.00     0.012 A   
ATOM     18  C12 UNL     1       3.096  -0.154  -1.345  1.00  0.00     0.045 A   
ATOM     19  C9  UNL     1       3.872  -2.285  -3.030  1.00  0.00     0.037 A   
ATOM     20  C11 UNL     1       4.296  -0.148  -2.025  1.00  0.00     0.109 A   
ATOM     21  C10 UNL     1       4.673  -1.182  -2.846  1.00  0.00     0.108 A   
ATOM     22  O1  UNL     1       5.227   0.840  -1.974  1.00  0.00    -0.316 OA  
ATOM     23  O2  UNL     1       5.889  -0.974  -3.421  1.00  0.00    -0.316 OA  
ATOM     24  C13 UNL     1       6.240   0.311  -2.862  1.00  0.00     0.337 C   
ENDBRANCH  15  16
ENDBRANCH  12  15
ENDBRANCH   7  12
ENDBRANCH   1   7
BRANCH   3  25
ATOM     25  C16 UNL     1      -2.330   2.411   2.583  1.00  0.00     0.169 C   
BRANCH  25  26
ATOM     26  C17 UNL     1      -2.535   3.227   1.331  1.00  0.00    -0.028 A   
ATOM     27  C18 UNL     1      -1.936   4.484   1.203  1.00  0.00     0.007 A   
ATOM     28  C25 UNL     1      -3.310   2.721   0.272  1.00  0.00     0.015 A   
ATOM     29  C19 UNL     1      -2.096   5.253   0.044  1.00  0.00     0.025 A   
ATOM     30  C21 UNL     1      -3.470   3.473  -0.909  1.00  0.00    -0.002 A   
ATOM     31  C20 UNL     1      -2.864   4.726  -1.000  1.00  0.00     0.040 A   
ATOM     32  C22 UNL     1      -4.159   3.248  -2.131  1.00  0.00     0.025 A   
ATOM     33  N3  UNL     1      -3.189   5.242  -2.235  1.00  0.00    -0.310 N   
ATOM     34  C23 UNL     1      -3.965   4.349  -2.932  1.00  0.00     0.075 A   
ATOM     35  C24 UNL     1      -2.792   6.544  -2.728  1.00  0.00     0.136 C   
ENDBRANCH  25  26
ENDBRANCH   3  25
TORSDOF 8
