REMARK SMILES CC(C)(C)[C@H]([NH2+]Cc1ccc2c(c1)OCO2)c1cn(Cc2cc(F)ncc2Cl)nn1
REMARK SMILES IDX 17 1 18 2 19 3 29 4 30 5 5 7 2 8 1 9 3 10 4 11 6 12 7 15
REMARK SMILES IDX 8 16 9 17 13 18 10 19 12 20 11 21 14 22 16 23 15 24 20 25
REMARK SMILES IDX 21 26 22 27 27 28 23 29 26 30 25 31 28 32 24 33
REMARK H PARENT 18 6 6 13 6 14
ROOT
ATOM     1   C14 UNL     1       0.819  -1.417  -0.938  1.00  0.00     0.127 A   
ATOM     2   C15 UNL     1       0.860  -1.586   0.428  1.00  0.00     0.046 A   
ATOM     3   N2  UNL     1       2.003  -0.941   0.807  1.00  0.00    -0.208 N   
ATOM     4   N4  UNL     1       2.635  -0.415  -0.260  1.00  0.00    -0.076 NA  
ATOM     5   N5  UNL     1       1.911  -0.687  -1.333  1.00  0.00    -0.132 NA  
ATOM     6   H20 UNL     1       0.206  -2.077   1.136  1.00  0.00     0.083 HD  
ENDROOT
BRANCH   1   7
ATOM     7   C5  UNL     1      -0.201  -1.819  -1.960  1.00  0.00     0.120 C   
BRANCH   7   8
ATOM     8   C2  UNL     1       0.085  -3.200  -2.647  1.00  0.00     0.010 C   
ATOM     9   C1  UNL     1      -1.081  -3.574  -3.593  1.00  0.00     0.017 C   
ATOM     10  C3  UNL     1       1.396  -3.206  -3.458  1.00  0.00     0.017 C   
ATOM     11  C4  UNL     1       0.172  -4.316  -1.581  1.00  0.00     0.017 C   
ENDBRANCH   7   8
BRANCH   7  12
ATOM     12  N1  UNL     1      -0.295  -0.716  -2.999  1.00  0.00     0.250 N   
ATOM     13  H11 UNL     1      -0.312  -1.094  -3.949  1.00  0.00     0.199 HD  
ATOM     14  H12 UNL     1       0.594  -0.191  -2.936  1.00  0.00     0.199 HD  
BRANCH  12  15
ATOM     15  C6  UNL     1      -1.418   0.247  -2.839  1.00  0.00     0.164 C   
BRANCH  15  16
ATOM     16  C7  UNL     1      -1.295   1.129  -1.628  1.00  0.00    -0.002 A   
ATOM     17  C8  UNL     1      -2.093   0.896  -0.482  1.00  0.00     0.012 A   
ATOM     18  C12 UNL     1      -0.373   2.190  -1.623  1.00  0.00     0.045 A   
ATOM     19  C9  UNL     1      -1.980   1.710   0.651  1.00  0.00     0.037 A   
ATOM     20  C11 UNL     1      -0.294   2.979  -0.494  1.00  0.00     0.109 A   
ATOM     21  C10 UNL     1      -1.074   2.746   0.611  1.00  0.00     0.108 A   
ATOM     22  O1  UNL     1       0.523   4.053  -0.337  1.00  0.00    -0.316 OA  
ATOM     23  O2  UNL     1      -0.845   3.643   1.605  1.00  0.00    -0.316 OA  
ATOM     24  C13 UNL     1       0.125   4.511   0.975  1.00  0.00     0.337 C   
ENDBRANCH  15  16
ENDBRANCH  12  15
ENDBRANCH   7  12
ENDBRANCH   1   7
BRANCH   3  25
ATOM     25  C16 UNL     1       2.578  -0.827   2.137  1.00  0.00     0.171 C   
BRANCH  25  26
ATOM     26  C17 UNL     1       2.380   0.552   2.712  1.00  0.00    -0.004 A   
ATOM     27  C18 UNL     1       3.396   1.510   2.557  1.00  0.00     0.067 A   
ATOM     28  C21 UNL     1       1.214   0.941   3.381  1.00  0.00     0.064 A   
ATOM     29  C19 UNL     1       3.214   2.782   3.078  1.00  0.00     0.213 A   
ATOM     30  C20 UNL     1       1.131   2.240   3.872  1.00  0.00     0.135 A   
ATOM     31  N3  UNL     1       2.104   3.170   3.732  1.00  0.00    -0.227 NA  
ATOM     32  CL1 UNL     1      -0.120  -0.122   3.613  1.00  0.00    -0.082 Cl  
ATOM     33  F1  UNL     1       4.188   3.686   2.912  1.00  0.00    -0.185 F   
ENDBRANCH  25  26
ENDBRANCH   3  25
TORSDOF 7
