REMARK SMILES c1cc2c(cc1C[NH2+][C@H](c1cn(Cc3cc(C4CC4)no3)nn1)C1CCCCC1)OCO2
REMARK SMILES IDX 10 1 11 2 12 3 22 4 23 5 9 7 8 8 7 11 6 12 1 13 2 14 3 15
REMARK SMILES IDX 5 16 4 17 32 18 30 19 31 20 24 21 25 22 29 23 26 24 28 25
REMARK SMILES IDX 27 26 13 27 14 28 15 29 21 30 16 31 20 32 17 33 18 34 19 35
REMARK H PARENT 11 6 8 9 8 10
ROOT
ATOM     1   C9  UNL     1       1.353  -0.831  -0.440  1.00  0.00     0.127 A   
ATOM     2   C10 UNL     1       0.276  -1.576  -0.014  1.00  0.00     0.046 A   
ATOM     3   N2  UNL     1       0.825  -2.479   0.857  1.00  0.00    -0.206 N   
ATOM     4   N4  UNL     1       2.165  -2.349   0.899  1.00  0.00    -0.076 NA  
ATOM     5   N5  UNL     1       2.499  -1.339   0.114  1.00  0.00    -0.132 NA  
ATOM     6   H9  UNL     1      -0.791  -1.501  -0.178  1.00  0.00     0.083 HD  
ENDROOT
BRANCH   1   7
ATOM     7   C8  UNL     1       1.411   0.420  -1.253  1.00  0.00     0.117 C   
BRANCH   7   8
ATOM     8   N1  UNL     1       2.408   1.391  -0.664  1.00  0.00     0.249 N   
ATOM     9   H6  UNL     1       3.304   0.890  -0.599  1.00  0.00     0.199 HD  
ATOM     10  H7  UNL     1       2.546   2.189  -1.289  1.00  0.00     0.199 HD  
BRANCH   8  11
ATOM     11  C7  UNL     1       2.108   1.899   0.714  1.00  0.00     0.164 C   
BRANCH  11  12
ATOM     12  C6  UNL     1       0.788   2.610   0.819  1.00  0.00    -0.002 A   
ATOM     13  C1  UNL     1      -0.261   2.044   1.584  1.00  0.00     0.012 A   
ATOM     14  C2  UNL     1      -1.510   2.666   1.667  1.00  0.00     0.037 A   
ATOM     15  C3  UNL     1      -1.684   3.849   0.984  1.00  0.00     0.108 A   
ATOM     16  C5  UNL     1       0.573   3.823   0.143  1.00  0.00     0.045 A   
ATOM     17  C4  UNL     1      -0.671   4.411   0.246  1.00  0.00     0.109 A   
ATOM     18  O3  UNL     1      -2.823   4.588   0.949  1.00  0.00    -0.316 OA  
ATOM     19  O2  UNL     1      -1.045   5.575  -0.347  1.00  0.00    -0.316 OA  
ATOM     20  C24 UNL     1      -2.401   5.707   0.140  1.00  0.00     0.337 C   
ENDBRANCH  11  12
ENDBRANCH   8  11
ENDBRANCH   7   8
BRANCH   7  21
ATOM     21  C18 UNL     1       1.728   0.144  -2.748  1.00  0.00     0.043 C   
ATOM     22  C19 UNL     1       3.165  -0.345  -3.017  1.00  0.00     0.010 C   
ATOM     23  C23 UNL     1       1.417   1.372  -3.628  1.00  0.00     0.010 C   
ATOM     24  C20 UNL     1       3.392  -0.636  -4.500  1.00  0.00     0.001 C   
ATOM     25  C22 UNL     1       1.645   1.077  -5.109  1.00  0.00     0.001 C   
ATOM     26  C21 UNL     1       3.060   0.571  -5.370  1.00  0.00     0.000 C   
ENDBRANCH   7  21
ENDBRANCH   1   7
BRANCH   3  27
ATOM     27  C11 UNL     1       0.137  -3.391   1.758  1.00  0.00     0.198 C   
BRANCH  27  28
ATOM     28  C12 UNL     1      -0.715  -2.635   2.708  1.00  0.00     0.106 A   
ATOM     29  C13 UNL     1      -2.014  -2.758   3.140  1.00  0.00     0.060 A   
ATOM     30  O1  UNL     1      -0.142  -1.555   3.313  1.00  0.00    -0.216 OA  
ATOM     31  C14 UNL     1      -2.180  -1.668   4.016  1.00  0.00     0.074 A   
ATOM     32  N3  UNL     1      -1.075  -0.927   4.116  1.00  0.00    -0.134 NA  
BRANCH  31  33
ATOM     33  C15 UNL     1      -3.490  -1.359   4.783  1.00  0.00     0.041 C   
ATOM     34  C16 UNL     1      -3.970   0.065   4.896  1.00  0.00     0.011 C   
ATOM     35  C17 UNL     1      -4.702  -0.901   4.012  1.00  0.00     0.011 C   
ENDBRANCH  31  33
ENDBRANCH  27  28
ENDBRANCH   3  27
TORSDOF 8
