REMARK SMILES COc1ccc(Cn2cc([C@@H]([NH2+]Cc3ccc4c(c3)OCO4)C3CCCC3)nn2)cc1O
REMARK SMILES IDX 8 1 9 2 10 3 28 4 29 5 7 7 6 8 3 9 4 10 31 11 5 12 30 13
REMARK SMILES IDX 2 14 1 15 32 16 11 18 12 19 13 22 14 23 15 24 19 25 16 26
REMARK SMILES IDX 18 27 17 28 20 29 22 30 21 31 23 32 24 33 27 34 25 35 26 36
REMARK H PARENT 9 6 32 17 12 20 12 21
ROOT
ATOM     1   N1  UNL     1       1.512   2.010   0.868  1.00  0.00    -0.208 N   
ATOM     2   C7  UNL     1       1.401   0.743   1.375  1.00  0.00     0.046 A   
ATOM     3   C8  UNL     1       1.032  -0.018   0.289  1.00  0.00     0.127 A   
ATOM     4   N3  UNL     1       0.941   0.788  -0.817  1.00  0.00    -0.132 NA  
ATOM     5   N4  UNL     1       1.233   2.025  -0.451  1.00  0.00    -0.076 NA  
ATOM     6   H8  UNL     1       1.571   0.521   2.420  1.00  0.00     0.083 HD  
ENDROOT
BRANCH   1   7
ATOM     7   C6  UNL     1       1.859   3.233   1.571  1.00  0.00     0.169 C   
BRANCH   7   8
ATOM     8   C5  UNL     1       0.639   3.842   2.215  1.00  0.00    -0.026 A   
ATOM     9   C2  UNL     1      -1.679   4.946   3.385  1.00  0.00     0.104 A   
ATOM     10  C3  UNL     1      -1.283   5.345   2.110  1.00  0.00     0.036 A   
ATOM     11  C24 UNL     1      -0.912   3.989   4.056  1.00  0.00     0.102 A   
ATOM     12  C4  UNL     1      -0.133   4.793   1.527  1.00  0.00     0.008 A   
ATOM     13  C23 UNL     1       0.236   3.443   3.494  1.00  0.00     0.041 A   
BRANCH   9  14
ATOM     14  O1  UNL     1      -2.779   5.391   4.069  1.00  0.00    -0.347 OA  
ATOM     15  C1  UNL     1      -3.495   6.477   3.487  1.00  0.00     0.203 C   
ENDBRANCH   9  14
BRANCH  11  16
ATOM     16  O4  UNL     1      -1.280   3.558   5.303  1.00  0.00    -0.358 OA  
ATOM     17  H29 UNL     1      -2.068   4.090   5.534  1.00  0.00     0.218 HD  
ENDBRANCH  11  16
ENDBRANCH   7   8
ENDBRANCH   1   7
BRANCH   3  18
ATOM     18  C9  UNL     1       0.679  -1.466   0.171  1.00  0.00     0.117 C   
BRANCH  18  19
ATOM     19  N2  UNL     1      -0.453  -1.622  -0.815  1.00  0.00     0.249 N   
ATOM     20  H10 UNL     1      -0.204  -1.057  -1.641  1.00  0.00     0.199 HD  
ATOM     21  H11 UNL     1      -0.548  -2.586  -1.144  1.00  0.00     0.199 HD  
BRANCH  19  22
ATOM     22  C10 UNL     1      -1.781  -1.144  -0.337  1.00  0.00     0.164 C   
BRANCH  22  23
ATOM     23  C11 UNL     1      -2.807  -1.282  -1.426  1.00  0.00    -0.002 A   
ATOM     24  C12 UNL     1      -3.002  -0.231  -2.353  1.00  0.00     0.012 A   
ATOM     25  C16 UNL     1      -3.535  -2.475  -1.568  1.00  0.00     0.045 A   
ATOM     26  C13 UNL     1      -3.920  -0.358  -3.401  1.00  0.00     0.037 A   
ATOM     27  C15 UNL     1      -4.429  -2.569  -2.615  1.00  0.00     0.109 A   
ATOM     28  C14 UNL     1      -4.617  -1.541  -3.505  1.00  0.00     0.108 A   
ATOM     29  O2  UNL     1      -5.207  -3.648  -2.895  1.00  0.00    -0.316 OA  
ATOM     30  O3  UNL     1      -5.540  -1.841  -4.455  1.00  0.00    -0.316 OA  
ATOM     31  C17 UNL     1      -5.927  -3.173  -4.056  1.00  0.00     0.337 C   
ENDBRANCH  22  23
ENDBRANCH  19  22
ENDBRANCH  18  19
BRANCH  18  32
ATOM     32  C18 UNL     1       1.870  -2.315  -0.315  1.00  0.00     0.043 C   
ATOM     33  C19 UNL     1       1.563  -3.815  -0.443  1.00  0.00     0.010 C   
ATOM     34  C22 UNL     1       3.062  -2.304   0.648  1.00  0.00     0.010 C   
ATOM     35  C20 UNL     1       2.892  -4.542  -0.231  1.00  0.00     0.001 C   
ATOM     36  C21 UNL     1       3.904  -3.475   0.170  1.00  0.00     0.001 C   
ENDBRANCH  18  32
ENDBRANCH   3  18
TORSDOF 9
