REMARK SMILES COc1ccc(Cn2cc([C@@H]([NH2+]Cc3ccc4c(c3)OCO4)C(C)C)nn2)cc1OC
REMARK SMILES IDX 8 1 9 2 10 3 26 4 27 5 7 7 6 8 3 9 4 10 29 11 5 12 28 13
REMARK SMILES IDX 2 14 1 15 30 16 31 17 11 18 12 19 13 22 14 23 15 24 19 25
REMARK SMILES IDX 16 26 18 27 17 28 20 29 22 30 21 31 23 32 24 33 25 34
REMARK H PARENT 9 6 12 20 12 21
ROOT
ATOM     1   N1  UNL     1       1.379   0.737  -1.976  1.00  0.00    -0.208 N   
ATOM     2   C7  UNL     1       0.910   1.432  -0.892  1.00  0.00     0.046 A   
ATOM     3   C8  UNL     1       1.392   0.727   0.188  1.00  0.00     0.127 A   
ATOM     4   N3  UNL     1       2.159  -0.318  -0.263  1.00  0.00    -0.132 NA  
ATOM     5   N4  UNL     1       2.143  -0.302  -1.586  1.00  0.00    -0.076 NA  
ATOM     6   H8  UNL     1       0.260   2.289  -0.993  1.00  0.00     0.083 HD  
ENDROOT
BRANCH   1   7
ATOM     7   C6  UNL     1       1.061   0.940  -3.382  1.00  0.00     0.169 C   
BRANCH   7   8
ATOM     8   C5  UNL     1      -0.415   0.741  -3.632  1.00  0.00    -0.026 A   
ATOM     9   C2  UNL     1      -3.203   0.395  -3.983  1.00  0.00     0.105 A   
ATOM     10  C3  UNL     1      -2.596   1.621  -4.269  1.00  0.00     0.036 A   
ATOM     11  C22 UNL     1      -2.393  -0.670  -3.563  1.00  0.00     0.105 A   
ATOM     12  C4  UNL     1      -1.215   1.792  -4.098  1.00  0.00     0.008 A   
ATOM     13  C21 UNL     1      -1.019  -0.499  -3.379  1.00  0.00     0.041 A   
BRANCH   9  14
ATOM     14  O1  UNL     1      -4.546   0.148  -4.064  1.00  0.00    -0.347 OA  
ATOM     15  C1  UNL     1      -5.394   1.217  -4.464  1.00  0.00     0.203 C   
ENDBRANCH   9  14
BRANCH  11  16
ATOM     16  O4  UNL     1      -2.902  -1.899  -3.225  1.00  0.00    -0.347 OA  
ATOM     17  C23 UNL     1      -3.292  -2.627  -4.392  1.00  0.00     0.203 C   
ENDBRANCH  11  16
ENDBRANCH   7   8
ENDBRANCH   1   7
BRANCH   3  18
ATOM     18  C9  UNL     1       1.145   0.879   1.654  1.00  0.00     0.117 C   
BRANCH  18  19
ATOM     19  N2  UNL     1       1.198  -0.464   2.330  1.00  0.00     0.249 N   
ATOM     20  H10 UNL     1       1.336  -0.387   3.342  1.00  0.00     0.199 HD  
ATOM     21  H11 UNL     1       2.031  -0.947   1.960  1.00  0.00     0.199 HD  
BRANCH  19  22
ATOM     22  C10 UNL     1       0.031  -1.353   2.065  1.00  0.00     0.164 C   
BRANCH  22  23
ATOM     23  C11 UNL     1       0.235  -2.693   2.713  1.00  0.00    -0.002 A   
ATOM     24  C12 UNL     1      -0.298  -2.960   3.996  1.00  0.00     0.012 A   
ATOM     25  C16 UNL     1       1.004  -3.674   2.063  1.00  0.00     0.045 A   
ATOM     26  C13 UNL     1      -0.078  -4.191   4.622  1.00  0.00     0.037 A   
ATOM     27  C15 UNL     1       1.199  -4.878   2.707  1.00  0.00     0.109 A   
ATOM     28  C14 UNL     1       0.674  -5.129   3.951  1.00  0.00     0.108 A   
ATOM     29  O2  UNL     1       1.909  -5.929   2.220  1.00  0.00    -0.316 OA  
ATOM     30  O3  UNL     1       0.987  -6.372   4.403  1.00  0.00    -0.316 OA  
ATOM     31  C17 UNL     1       1.742  -6.889   3.287  1.00  0.00     0.337 C   
ENDBRANCH  22  23
ENDBRANCH  19  22
ENDBRANCH  18  19
BRANCH  18  32
ATOM     32  C18 UNL     1       2.140   1.864   2.320  1.00  0.00     0.037 C   
ATOM     33  C19 UNL     1       3.581   1.346   2.391  1.00  0.00     0.014 C   
ATOM     34  C20 UNL     1       1.671   2.277   3.721  1.00  0.00     0.014 C   
ENDBRANCH  18  32
ENDBRANCH   3  18
TORSDOF 9
