REMARK SMILES COc1ncccc1CCn1cc([C@@H]([NH2+]Cc2ccc3c(c2)OCO3)C(C)C)nn1
REMARK SMILES IDX 11 1 12 2 13 3 29 4 30 5 10 7 9 8 8 9 3 10 4 11 5 12 7 13
REMARK SMILES IDX 6 14 2 15 1 16 14 17 15 18 16 21 17 22 18 23 22 24 19 25
REMARK SMILES IDX 21 26 20 27 23 28 25 29 24 30 26 31 27 32 28 33
REMARK H PARENT 12 6 15 19 15 20
ROOT
ATOM     1   N2  UNL     1       0.353   2.893   1.622  1.00  0.00    -0.212 N   
ATOM     2   C9  UNL     1       1.361   2.223   0.979  1.00  0.00     0.045 A   
ATOM     3   C10 UNL     1       1.602   1.141   1.799  1.00  0.00     0.127 A   
ATOM     4   N4  UNL     1       0.887   1.300   2.962  1.00  0.00    -0.132 NA  
ATOM     5   N5  UNL     1       0.141   2.388   2.848  1.00  0.00    -0.076 NA  
ATOM     6   H11 UNL     1       1.657   2.481  -0.027  1.00  0.00     0.083 HD  
ENDROOT
BRANCH   1   7
ATOM     7   C8  UNL     1      -0.634   3.765   1.006  1.00  0.00     0.139 C   
BRANCH   7   8
ATOM     8   C7  UNL     1      -1.860   2.985   0.495  1.00  0.00     0.061 C   
BRANCH   8   9
ATOM     9   C6  UNL     1      -1.498   1.931  -0.529  1.00  0.00     0.003 A   
ATOM     10  C2  UNL     1      -1.289   0.589  -0.191  1.00  0.00     0.169 A   
ATOM     11  N1  UNL     1      -0.720  -0.337  -1.003  1.00  0.00    -0.233 NA  
ATOM     12  C3  UNL     1      -0.517   0.050  -2.283  1.00  0.00     0.114 A   
ATOM     13  C5  UNL     1      -1.239   2.289  -1.854  1.00  0.00     0.010 A   
ATOM     14  C4  UNL     1      -0.761   1.331  -2.750  1.00  0.00     0.021 A   
BRANCH  10  15
ATOM     15  O1  UNL     1      -1.516   0.145   1.089  1.00  0.00    -0.332 OA  
ATOM     16  C1  UNL     1      -2.822  -0.439   1.137  1.00  0.00     0.205 C   
ENDBRANCH  10  15
ENDBRANCH   8   9
ENDBRANCH   7   8
ENDBRANCH   1   7
BRANCH   3  17
ATOM     17  C11 UNL     1       2.264  -0.181   1.567  1.00  0.00     0.117 C   
BRANCH  17  18
ATOM     18  N3  UNL     1       1.184  -1.163   1.186  1.00  0.00     0.249 N   
ATOM     19  H13 UNL     1       0.833  -0.999   0.220  1.00  0.00     0.199 HD  
ATOM     20  H14 UNL     1       0.346  -0.903   1.738  1.00  0.00     0.199 HD  
BRANCH  18  21
ATOM     21  C12 UNL     1       1.466  -2.596   1.425  1.00  0.00     0.164 C   
BRANCH  21  22
ATOM     22  C13 UNL     1       0.329  -3.473   0.981  1.00  0.00    -0.002 A   
ATOM     23  C14 UNL     1      -0.874  -3.520   1.726  1.00  0.00     0.012 A   
ATOM     24  C18 UNL     1       0.445  -4.238  -0.193  1.00  0.00     0.045 A   
ATOM     25  C15 UNL     1      -1.949  -4.315   1.309  1.00  0.00     0.037 A   
ATOM     26  C17 UNL     1      -0.628  -5.021  -0.569  1.00  0.00     0.109 A   
ATOM     27  C16 UNL     1      -1.792  -5.056   0.159  1.00  0.00     0.108 A   
ATOM     28  O2  UNL     1      -0.672  -5.832  -1.657  1.00  0.00    -0.316 OA  
ATOM     29  O3  UNL     1      -2.721  -5.882  -0.390  1.00  0.00    -0.316 OA  
ATOM     30  C19 UNL     1      -1.982  -6.422  -1.508  1.00  0.00     0.337 C   
ENDBRANCH  21  22
ENDBRANCH  18  21
ENDBRANCH  17  18
BRANCH  17  31
ATOM     31  C20 UNL     1       3.452  -0.236   0.574  1.00  0.00     0.037 C   
ATOM     32  C21 UNL     1       3.086  -0.132  -0.909  1.00  0.00     0.014 C   
ATOM     33  C22 UNL     1       4.542   0.787   0.922  1.00  0.00     0.014 C   
ENDBRANCH  17  31
ENDBRANCH   3  17
TORSDOF 9
