REMARK SMILES CC(C)(C)[C@H]([NH2+]Cc1ccc2c(c1)OCO2)c1cn(Cc2cnn(C(C)(C)C)c2)nn1
REMARK SMILES IDX 17 1 18 2 19 3 30 4 31 5 5 7 2 8 1 9 3 10 4 11 6 12 7 15
REMARK SMILES IDX 8 16 9 17 13 18 10 19 12 20 11 21 14 22 16 23 15 24 20 25
REMARK SMILES IDX 21 26 22 27 29 28 23 29 24 30 25 31 26 32 27 33 28 34
REMARK H PARENT 18 6 6 13 6 14
ROOT
ATOM     1   C14 UNL     1       1.518   0.907   1.224  1.00  0.00     0.127 A   
ATOM     2   C15 UNL     1       0.301   0.317   1.486  1.00  0.00     0.046 A   
ATOM     3   N2  UNL     1      -0.554   1.375   1.627  1.00  0.00    -0.208 N   
ATOM     4   N5  UNL     1       0.100   2.545   1.480  1.00  0.00    -0.076 NA  
ATOM     5   N6  UNL     1       1.364   2.271   1.210  1.00  0.00    -0.132 NA  
ATOM     6   H20 UNL     1      -0.033  -0.710   1.543  1.00  0.00     0.083 HD  
ENDROOT
BRANCH   1   7
ATOM     7   C5  UNL     1       2.850   0.330   0.850  1.00  0.00     0.120 C   
BRANCH   7   8
ATOM     8   C2  UNL     1       3.894   0.293   2.018  1.00  0.00     0.010 C   
ATOM     9   C1  UNL     1       3.335  -0.543   3.192  1.00  0.00     0.017 C   
ATOM     10  C3  UNL     1       4.256   1.692   2.555  1.00  0.00     0.017 C   
ATOM     11  C4  UNL     1       5.192  -0.401   1.543  1.00  0.00     0.017 C   
ENDBRANCH   7   8
BRANCH   7  12
ATOM     12  N1  UNL     1       3.380   1.132  -0.328  1.00  0.00     0.250 N   
ATOM     13  H11 UNL     1       2.819   2.000  -0.349  1.00  0.00     0.199 HD  
ATOM     14  H12 UNL     1       4.338   1.452  -0.164  1.00  0.00     0.199 HD  
BRANCH  12  15
ATOM     15  C6  UNL     1       3.298   0.488  -1.668  1.00  0.00     0.164 C   
BRANCH  15  16
ATOM     16  C7  UNL     1       1.921   0.020  -2.051  1.00  0.00    -0.002 A   
ATOM     17  C8  UNL     1       0.880   0.948  -2.292  1.00  0.00     0.012 A   
ATOM     18  C12 UNL     1       1.652  -1.357  -2.147  1.00  0.00     0.045 A   
ATOM     19  C9  UNL     1      -0.411   0.513  -2.616  1.00  0.00     0.037 A   
ATOM     20  C11 UNL     1       0.369  -1.751  -2.466  1.00  0.00     0.109 A   
ATOM     21  C10 UNL     1      -0.635  -0.844  -2.693  1.00  0.00     0.108 A   
ATOM     22  O1  UNL     1      -0.053  -3.037  -2.586  1.00  0.00    -0.316 OA  
ATOM     23  O2  UNL     1      -1.816  -1.445  -2.990  1.00  0.00    -0.316 OA  
ATOM     24  C13 UNL     1      -1.433  -2.837  -2.964  1.00  0.00     0.337 C   
ENDBRANCH  15  16
ENDBRANCH  12  15
ENDBRANCH   7  12
ENDBRANCH   1   7
BRANCH   3  25
ATOM     25  C16 UNL     1      -1.987   1.355   1.879  1.00  0.00     0.172 C   
BRANCH  25  26
ATOM     26  C17 UNL     1      -2.747   1.451   0.605  1.00  0.00     0.007 A   
ATOM     27  C18 UNL     1      -2.756   2.528  -0.307  1.00  0.00     0.138 A   
ATOM     28  C23 UNL     1      -3.627   0.542   0.052  1.00  0.00     0.103 A   
ATOM     29  N3  UNL     1      -3.545   2.305  -1.355  1.00  0.00    -0.189 NA  
ATOM     30  N4  UNL     1      -4.092   1.093  -1.116  1.00  0.00    -0.227 N   
BRANCH  30  31
ATOM     31  C19 UNL     1      -5.131   0.573  -2.026  1.00  0.00     0.047 C   
ATOM     32  C20 UNL     1      -6.461   1.283  -1.714  1.00  0.00     0.034 C   
ATOM     33  C21 UNL     1      -4.747   0.840  -3.496  1.00  0.00     0.034 C   
ATOM     34  C22 UNL     1      -5.337  -0.948  -1.865  1.00  0.00     0.034 C   
ENDBRANCH  30  31
ENDBRANCH  25  26
ENDBRANCH   3  25
TORSDOF 8
