REMARK SMILES Cc1cc(=[N+]2C=C([C@@H]([NH2+]Cc3ccc4c(c3)OCO4)C3CCCC3)N=N2)cc(C)n1C
REMARK SMILES IDX 8 1 7 2 5 3 6 4 26 5 25 6 4 7 2 8 3 9 30 10 28 11 27 12 1 13
REMARK SMILES IDX 31 14 29 15 9 16 10 19 11 20 12 21 16 22 13 23 15 24 14 25
REMARK SMILES IDX 17 26 19 27 18 28 20 29 21 30 24 31 22 32 23 33
REMARK H PARENT 9 17 9 18
ROOT
ATOM     1   C7  UNL     1       1.281  -2.028   0.357  1.00  0.00     0.117 C   
ENDROOT
BRANCH   1   2
ATOM     2   C6  UNL     1       0.775  -0.625   0.182  1.00  0.00     0.127 C   
ATOM     3   N1  UNL     1      -0.192   1.254  -0.384  1.00  0.00    -0.181 N   
ATOM     4   C5  UNL     1      -0.288  -0.115  -0.534  1.00  0.00     0.135 C   
ATOM     5   N4  UNL     1       0.876   1.539   0.398  1.00  0.00    -0.071 NA  
ATOM     6   N3  UNL     1       1.470   0.409   0.744  1.00  0.00    -0.131 NA  
BRANCH   3   7
ATOM     7   C4  UNL     1      -1.009   2.286  -0.919  1.00  0.00     0.061 A   
ATOM     8   C2  UNL     1      -1.519   4.655  -1.133  1.00  0.00     0.008 A   
ATOM     9   C3  UNL     1      -0.725   3.617  -0.620  1.00  0.00     0.045 A   
ATOM     10  N5  UNL     1      -2.562   4.362  -1.968  1.00  0.00    -0.311 N   
ATOM     11  C22 UNL     1      -2.892   3.061  -2.240  1.00  0.00     0.008 A   
ATOM     12  C21 UNL     1      -2.103   2.012  -1.731  1.00  0.00     0.045 A   
ATOM     13  C1  UNL     1      -1.181   6.075  -0.762  1.00  0.00     0.062 C   
ATOM     14  C24 UNL     1      -3.356   5.468  -2.569  1.00  0.00     0.135 C   
ATOM     15  C23 UNL     1      -4.083   2.720  -3.099  1.00  0.00     0.062 C   
ENDBRANCH   3   7
ENDBRANCH   1   2
BRANCH   1  16
ATOM     16  N2  UNL     1       2.792  -2.047   0.280  1.00  0.00     0.249 N   
ATOM     17  H7  UNL     1       3.185  -2.737   0.929  1.00  0.00     0.199 HD  
ATOM     18  H8  UNL     1       3.115  -1.131   0.628  1.00  0.00     0.199 HD  
BRANCH  16  19
ATOM     19  C8  UNL     1       3.391  -2.276  -1.070  1.00  0.00     0.164 C   
BRANCH  19  20
ATOM     20  C9  UNL     1       2.974  -1.261  -2.099  1.00  0.00    -0.002 A   
ATOM     21  C10 UNL     1       3.458   0.069  -2.035  1.00  0.00     0.012 A   
ATOM     22  C14 UNL     1       2.057  -1.612  -3.106  1.00  0.00     0.045 A   
ATOM     23  C11 UNL     1       3.022   1.040  -2.943  1.00  0.00     0.037 A   
ATOM     24  C13 UNL     1       1.653  -0.632  -3.988  1.00  0.00     0.109 A   
ATOM     25  C12 UNL     1       2.117   0.658  -3.907  1.00  0.00     0.108 A   
ATOM     26  O1  UNL     1       0.764  -0.798  -5.003  1.00  0.00    -0.316 OA  
ATOM     27  O2  UNL     1       1.574   1.462  -4.859  1.00  0.00    -0.316 OA  
ATOM     28  C15 UNL     1       0.842   0.494  -5.644  1.00  0.00     0.337 C   
ENDBRANCH  19  20
ENDBRANCH  16  19
ENDBRANCH   1  16
BRANCH   1  29
ATOM     29  C16 UNL     1       0.794  -2.644   1.683  1.00  0.00     0.043 C   
ATOM     30  C17 UNL     1       1.053  -4.150   1.810  1.00  0.00     0.010 C   
ATOM     31  C20 UNL     1       1.377  -2.040   2.975  1.00  0.00     0.010 C   
ATOM     32  C18 UNL     1       0.889  -4.399   3.300  1.00  0.00     0.001 C   
ATOM     33  C19 UNL     1       1.597  -3.212   3.933  1.00  0.00     0.001 C   
ENDBRANCH   1  29
TORSDOF 6
