REMARK SMILES CC(C)[C@H]([NH2+]Cc1ccc2c(c1)OCO2)c1cn(CCc2ccc(F)cc2)nn1
REMARK SMILES IDX 16 1 17 2 18 3 28 4 29 5 4 7 2 8 1 9 3 10 5 11 6 14 7 15
REMARK SMILES IDX 8 16 12 17 9 18 11 19 10 20 13 21 15 22 14 23 19 24 20 25
REMARK SMILES IDX 21 26 22 27 27 28 23 29 26 30 24 31 25 32
REMARK H PARENT 17 6 5 12 5 13
ROOT
ATOM     1   C13 UNL     1       0.578   0.866  -0.704  1.00  0.00     0.127 A   
ATOM     2   C14 UNL     1       1.628   1.652  -0.286  1.00  0.00     0.045 A   
ATOM     3   N2  UNL     1       1.049   2.541   0.577  1.00  0.00    -0.212 N   
ATOM     4   N3  UNL     1      -0.279   2.341   0.657  1.00  0.00    -0.076 NA  
ATOM     5   N4  UNL     1      -0.579   1.308  -0.112  1.00  0.00    -0.132 NA  
ATOM     6   H18 UNL     1       2.693   1.631  -0.469  1.00  0.00     0.083 HD  
ENDROOT
BRANCH   1   7
ATOM     7   C4  UNL     1       0.549  -0.377  -1.533  1.00  0.00     0.117 C   
BRANCH   7   8
ATOM     8   C2  UNL     1       0.105  -0.162  -3.001  1.00  0.00     0.037 C   
ATOM     9   C1  UNL     1       1.108   0.710  -3.765  1.00  0.00     0.014 C   
ATOM     10  C3  UNL     1      -1.308   0.413  -3.161  1.00  0.00     0.014 C   
ENDBRANCH   7   8
BRANCH   7  11
ATOM     11  N1  UNL     1      -0.373  -1.380  -0.885  1.00  0.00     0.249 N   
ATOM     12  H9  UNL     1      -1.220  -0.861  -0.607  1.00  0.00     0.199 HD  
ATOM     13  H10 UNL     1      -0.679  -2.101  -1.546  1.00  0.00     0.199 HD  
BRANCH  11  14
ATOM     14  C5  UNL     1       0.172  -2.028   0.342  1.00  0.00     0.164 C   
BRANCH  14  15
ATOM     15  C6  UNL     1      -0.898  -2.804   1.053  1.00  0.00    -0.002 A   
ATOM     16  C7  UNL     1      -1.059  -4.190   0.823  1.00  0.00     0.012 A   
ATOM     17  C11 UNL     1      -1.780  -2.138   1.923  1.00  0.00     0.045 A   
ATOM     18  C8  UNL     1      -2.077  -4.909   1.459  1.00  0.00     0.037 A   
ATOM     19  C10 UNL     1      -2.771  -2.877   2.534  1.00  0.00     0.109 A   
ATOM     20  C9  UNL     1      -2.916  -4.223   2.309  1.00  0.00     0.108 A   
ATOM     21  O1  UNL     1      -3.697  -2.392   3.402  1.00  0.00    -0.316 OA  
ATOM     22  O2  UNL     1      -3.952  -4.756   3.006  1.00  0.00    -0.316 OA  
ATOM     23  C12 UNL     1      -4.440  -3.593   3.710  1.00  0.00     0.337 C   
ENDBRANCH  14  15
ENDBRANCH  11  14
ENDBRANCH   7  11
ENDBRANCH   1   7
BRANCH   3  24
ATOM     24  C15 UNL     1       1.707   3.505   1.433  1.00  0.00     0.139 C   
BRANCH  24  25
ATOM     25  C16 UNL     1       1.621   3.146   2.921  1.00  0.00     0.057 C   
BRANCH  25  26
ATOM     26  C17 UNL     1       2.124   1.753   3.233  1.00  0.00    -0.046 A   
ATOM     27  C18 UNL     1       1.218   0.751   3.621  1.00  0.00     0.007 A   
ATOM     28  C22 UNL     1       3.486   1.436   3.115  1.00  0.00     0.007 A   
ATOM     29  C19 UNL     1       1.663  -0.546   3.871  1.00  0.00     0.039 A   
ATOM     30  C21 UNL     1       3.928   0.134   3.359  1.00  0.00     0.039 A   
ATOM     31  C20 UNL     1       3.013  -0.845   3.729  1.00  0.00     0.123 A   
ATOM     32  F1  UNL     1       3.434  -2.098   3.937  1.00  0.00    -0.207 F   
ENDBRANCH  25  26
ENDBRANCH  24  25
ENDBRANCH   3  24
TORSDOF 8
