REMARK SMILES COc1ccc(C(=O)Cn2cc([C@@H]([NH2+]Cc3ccc4c(c3)OCO4)C(C)(C)C)nn2)cc1
REMARK SMILES IDX 10 1 11 2 12 3 29 4 30 5 9 7 7 8 8 9 6 10 3 11 4 12 32 13
REMARK SMILES IDX 5 14 31 15 2 16 1 17 13 18 14 19 15 22 16 23 17 24 21 25
REMARK SMILES IDX 18 26 20 27 19 28 22 29 24 30 23 31 25 32 26 33 27 34 28 35
REMARK H PARENT 11 6 14 20 14 21
ROOT
ATOM     1   N1  UNL     1      -0.789  -1.461   0.465  1.00  0.00    -0.204 N   
ATOM     2   C8  UNL     1      -0.026  -2.037  -0.511  1.00  0.00     0.046 A   
ATOM     3   C9  UNL     1       1.266  -1.875  -0.062  1.00  0.00     0.127 A   
ATOM     4   N3  UNL     1       1.242  -1.221   1.146  1.00  0.00    -0.132 NA  
ATOM     5   N4  UNL     1      -0.020  -0.977   1.457  1.00  0.00    -0.076 NA  
ATOM     6   H8  UNL     1      -0.457  -2.459  -1.410  1.00  0.00     0.083 HD  
ENDROOT
BRANCH   1   7
ATOM     7   C7  UNL     1      -2.227  -1.334   0.521  1.00  0.00     0.214 C   
BRANCH   7   8
ATOM     8   C6  UNL     1      -2.711  -0.302  -0.464  1.00  0.00     0.182 C   
ATOM     9   O2  UNL     1      -2.784  -0.560  -1.668  1.00  0.00    -0.292 OA  
BRANCH   8  10
ATOM     10  C5  UNL     1      -3.108   1.050   0.021  1.00  0.00     0.019 A   
ATOM     11  C2  UNL     1      -3.889   3.631   0.816  1.00  0.00     0.075 A   
ATOM     12  C3  UNL     1      -4.386   3.084  -0.365  1.00  0.00     0.034 A   
ATOM     13  C24 UNL     1      -3.002   2.883   1.596  1.00  0.00     0.034 A   
ATOM     14  C4  UNL     1      -3.995   1.799  -0.762  1.00  0.00     0.014 A   
ATOM     15  C23 UNL     1      -2.603   1.601   1.203  1.00  0.00     0.014 A   
BRANCH  11  16
ATOM     16  O1  UNL     1      -4.189   4.865   1.318  1.00  0.00    -0.349 OA  
ATOM     17  C1  UNL     1      -4.965   5.725   0.493  1.00  0.00     0.203 C   
ENDBRANCH  11  16
ENDBRANCH   8  10
ENDBRANCH   7   8
ENDBRANCH   1   7
BRANCH   3  18
ATOM     18  C10 UNL     1       2.586  -2.191  -0.700  1.00  0.00     0.120 C   
BRANCH  18  19
ATOM     19  N2  UNL     1       3.557  -1.073  -0.354  1.00  0.00     0.250 N   
ATOM     20  H10 UNL     1       3.187  -0.643   0.510  1.00  0.00     0.199 HD  
ATOM     21  H11 UNL     1       4.478  -1.438  -0.098  1.00  0.00     0.199 HD  
BRANCH  19  22
ATOM     22  C11 UNL     1       3.719   0.004  -1.373  1.00  0.00     0.164 C   
BRANCH  22  23
ATOM     23  C12 UNL     1       2.448   0.747  -1.678  1.00  0.00    -0.002 A   
ATOM     24  C13 UNL     1       1.920   1.678  -0.751  1.00  0.00     0.012 A   
ATOM     25  C17 UNL     1       1.741   0.477  -2.863  1.00  0.00     0.045 A   
ATOM     26  C14 UNL     1       0.700   2.320  -0.992  1.00  0.00     0.037 A   
ATOM     27  C16 UNL     1       0.538   1.120  -3.064  1.00  0.00     0.109 A   
ATOM     28  C15 UNL     1       0.032   2.015  -2.155  1.00  0.00     0.108 A   
ATOM     29  O3  UNL     1      -0.276   0.949  -4.137  1.00  0.00    -0.316 OA  
ATOM     30  O4  UNL     1      -1.164   2.526  -2.544  1.00  0.00    -0.316 OA  
ATOM     31  C18 UNL     1      -1.371   1.827  -3.790  1.00  0.00     0.337 C   
ENDBRANCH  22  23
ENDBRANCH  19  22
ENDBRANCH  18  19
BRANCH  18  32
ATOM     32  C19 UNL     1       3.179  -3.586  -0.299  1.00  0.00     0.010 C   
ATOM     33  C20 UNL     1       2.186  -4.709  -0.677  1.00  0.00     0.017 C   
ATOM     34  C21 UNL     1       4.483  -3.856  -1.087  1.00  0.00     0.017 C   
ATOM     35  C22 UNL     1       3.485  -3.696   1.208  1.00  0.00     0.017 C   
ENDBRANCH  18  32
ENDBRANCH   3  18
TORSDOF 9
