REMARK SMILES Fc1cc(F)cc(Cn2cc([C@@H]([NH2+]Cc3ccc4c(c3)OCO4)C3CCCC3)nn2)c1
REMARK SMILES IDX 9 1 10 2 11 3 29 4 30 5 8 7 7 8 2 9 3 10 31 11 4 12 6 13
REMARK SMILES IDX 1 14 5 15 12 16 13 17 14 20 15 21 16 22 20 23 17 24 19 25
REMARK SMILES IDX 18 26 21 27 23 28 22 29 24 30 25 31 28 32 26 33 27 34
REMARK H PARENT 10 6 13 18 13 19
ROOT
ATOM     1   N1  UNL     1      -1.718  -1.378   1.500  1.00  0.00    -0.208 N   
ATOM     2   C7  UNL     1      -0.859  -1.271   0.442  1.00  0.00     0.046 A   
ATOM     3   C8  UNL     1       0.348  -0.951   1.024  1.00  0.00     0.127 A   
ATOM     4   N3  UNL     1       0.196  -0.916   2.385  1.00  0.00    -0.132 NA  
ATOM     5   N4  UNL     1      -1.073  -1.166   2.664  1.00  0.00    -0.076 NA  
ATOM     6   H5  UNL     1      -1.183  -1.379  -0.584  1.00  0.00     0.083 HD  
ENDROOT
BRANCH   1   7
ATOM     7   C6  UNL     1      -3.159  -1.566   1.469  1.00  0.00     0.169 C   
BRANCH   7   8
ATOM     8   C5  UNL     1      -3.842  -0.292   1.035  1.00  0.00    -0.023 A   
ATOM     9   C1  UNL     1      -4.552   1.981   1.500  1.00  0.00     0.126 A   
ATOM     10  C2  UNL     1      -5.014   2.133   0.201  1.00  0.00     0.078 A   
ATOM     11  C23 UNL     1      -3.971   0.787   1.925  1.00  0.00     0.045 A   
ATOM     12  C3  UNL     1      -4.892   1.066  -0.676  1.00  0.00     0.126 A   
ATOM     13  C4  UNL     1      -4.314  -0.139  -0.277  1.00  0.00     0.045 A   
ATOM     14  F1  UNL     1      -4.638   3.005   2.356  1.00  0.00    -0.207 F   
ATOM     15  F2  UNL     1      -5.313   1.199  -1.940  1.00  0.00    -0.207 F   
ENDBRANCH   7   8
ENDBRANCH   1   7
BRANCH   3  16
ATOM     16  C9  UNL     1       1.658  -0.580   0.411  1.00  0.00     0.117 C   
BRANCH  16  17
ATOM     17  N2  UNL     1       2.272   0.606   1.129  1.00  0.00     0.249 N   
ATOM     18  H7  UNL     1       2.443   0.308   2.099  1.00  0.00     0.199 HD  
ATOM     19  H8  UNL     1       3.179   0.835   0.713  1.00  0.00     0.199 HD  
BRANCH  17  20
ATOM     20  C10 UNL     1       1.453   1.858   1.196  1.00  0.00     0.164 C   
BRANCH  20  21
ATOM     21  C11 UNL     1       0.986   2.351  -0.145  1.00  0.00    -0.002 A   
ATOM     22  C12 UNL     1      -0.395   2.334  -0.464  1.00  0.00     0.012 A   
ATOM     23  C16 UNL     1       1.909   2.806  -1.101  1.00  0.00     0.045 A   
ATOM     24  C13 UNL     1      -0.850   2.747  -1.720  1.00  0.00     0.037 A   
ATOM     25  C15 UNL     1       1.427   3.205  -2.331  1.00  0.00     0.109 A   
ATOM     26  C14 UNL     1       0.088   3.174  -2.633  1.00  0.00     0.108 A   
ATOM     27  O1  UNL     1       2.183   3.658  -3.365  1.00  0.00    -0.316 OA  
ATOM     28  O2  UNL     1      -0.168   3.603  -3.896  1.00  0.00    -0.316 OA  
ATOM     29  C17 UNL     1       1.160   3.944  -4.348  1.00  0.00     0.337 C   
ENDBRANCH  20  21
ENDBRANCH  17  20
ENDBRANCH  16  17
BRANCH  16  30
ATOM     30  C18 UNL     1       2.664  -1.748   0.455  1.00  0.00     0.043 C   
ATOM     31  C19 UNL     1       4.023  -1.439  -0.179  1.00  0.00     0.010 C   
ATOM     32  C22 UNL     1       2.208  -2.968  -0.356  1.00  0.00     0.010 C   
ATOM     33  C20 UNL     1       4.646  -2.814  -0.374  1.00  0.00     0.001 C   
ATOM     34  C21 UNL     1       3.481  -3.754  -0.666  1.00  0.00     0.001 C   
ENDBRANCH  16  30
ENDBRANCH   3  16
TORSDOF 7
