REMARK SMILES CC(C)(C)[C@H]([NH2+]Cc1ccc2c(c1)OCO2)c1cn(Cc2ccc(F)c(F)c2)nn1
REMARK SMILES IDX 17 1 18 2 19 3 29 4 30 5 5 7 2 8 1 9 3 10 4 11 6 12 7 15
REMARK SMILES IDX 8 16 9 17 13 18 10 19 12 20 11 21 14 22 16 23 15 24 20 25
REMARK SMILES IDX 21 26 22 27 28 28 23 29 26 30 24 31 27 32 25 33
REMARK H PARENT 18 6 6 13 6 14
ROOT
ATOM     1   C14 UNL     1      -1.565   0.693   0.692  1.00  0.00     0.127 A   
ATOM     2   C15 UNL     1      -1.440  -0.443  -0.075  1.00  0.00     0.046 A   
ATOM     3   N2  UNL     1      -2.194  -0.178  -1.185  1.00  0.00    -0.208 N   
ATOM     4   N3  UNL     1      -2.739   1.053  -1.113  1.00  0.00    -0.076 NA  
ATOM     5   N4  UNL     1      -2.367   1.593   0.034  1.00  0.00    -0.132 NA  
ATOM     6   H20 UNL     1      -0.906  -1.375   0.054  1.00  0.00     0.083 HD  
ENDROOT
BRANCH   1   7
ATOM     7   C5  UNL     1      -0.943   1.091   1.998  1.00  0.00     0.120 C   
BRANCH   7   8
ATOM     8   C2  UNL     1      -1.776   0.684   3.263  1.00  0.00     0.010 C   
ATOM     9   C1  UNL     1      -1.977  -0.850   3.295  1.00  0.00     0.017 C   
ATOM     10  C3  UNL     1      -1.007   1.061   4.550  1.00  0.00     0.017 C   
ATOM     11  C4  UNL     1      -3.165   1.351   3.306  1.00  0.00     0.017 C   
ENDBRANCH   7   8
BRANCH   7  12
ATOM     12  N1  UNL     1      -0.716   2.594   1.968  1.00  0.00     0.250 N   
ATOM     13  H11 UNL     1      -1.042   3.043   2.826  1.00  0.00     0.199 HD  
ATOM     14  H12 UNL     1      -1.337   2.954   1.226  1.00  0.00     0.199 HD  
BRANCH  12  15
ATOM     15  C6  UNL     1       0.673   3.050   1.676  1.00  0.00     0.164 C   
BRANCH  15  16
ATOM     16  C7  UNL     1       1.193   2.621   0.333  1.00  0.00    -0.002 A   
ATOM     17  C8  UNL     1       0.652   3.169  -0.856  1.00  0.00     0.012 A   
ATOM     18  C12 UNL     1       2.216   1.661   0.243  1.00  0.00     0.045 A   
ATOM     19  C9  UNL     1       1.118   2.769  -2.113  1.00  0.00     0.037 A   
ATOM     20  C11 UNL     1       2.656   1.293  -1.012  1.00  0.00     0.109 A   
ATOM     21  C10 UNL     1       2.125   1.833  -2.156  1.00  0.00     0.108 A   
ATOM     22  O1  UNL     1       3.633   0.386  -1.270  1.00  0.00    -0.316 OA  
ATOM     23  O2  UNL     1       2.708   1.342  -3.280  1.00  0.00    -0.316 OA  
ATOM     24  C13 UNL     1       3.707   0.465  -2.712  1.00  0.00     0.337 C   
ENDBRANCH  15  16
ENDBRANCH  12  15
ENDBRANCH   7  12
ENDBRANCH   1   7
BRANCH   3  25
ATOM     25  C16 UNL     1      -2.458  -1.042  -2.324  1.00  0.00     0.169 C   
BRANCH  25  26
ATOM     26  C17 UNL     1      -1.234  -1.190  -3.193  1.00  0.00    -0.025 A   
ATOM     27  C18 UNL     1      -0.900  -0.196  -4.130  1.00  0.00     0.008 A   
ATOM     28  C22 UNL     1      -0.394  -2.305  -3.059  1.00  0.00     0.047 A   
ATOM     29  C19 UNL     1       0.249  -0.318  -4.917  1.00  0.00     0.043 A   
ATOM     30  C21 UNL     1       0.752  -2.413  -3.843  1.00  0.00     0.159 A   
ATOM     31  C20 UNL     1       1.071  -1.427  -4.766  1.00  0.00     0.158 A   
ATOM     32  F2  UNL     1       1.555  -3.471  -3.683  1.00  0.00    -0.204 F   
ATOM     33  F1  UNL     1       2.187  -1.526  -5.501  1.00  0.00    -0.204 F   
ENDBRANCH  25  26
ENDBRANCH   3  25
TORSDOF 7
