REMARK SMILES CCc1[nH]ncc1Cn1cc([C@H](CC(C)C)[NH2+]Cc2ccc3c(c2)OCO3)nn1
REMARK SMILES IDX 9 1 10 2 11 3 28 4 29 5 8 7 7 8 3 9 4 10 5 11 6 12 2 14 1 15
REMARK SMILES IDX 12 16 13 17 14 18 15 19 16 20 17 21 18 24 19 25 20 26 24 27
REMARK SMILES IDX 21 28 23 29 22 30 25 31 27 32 26 33
REMARK H PARENT 10 6 4 13 17 22 17 23
ROOT
ATOM     1   N3  UNL     1       1.964  -0.498  -1.435  1.00  0.00    -0.208 N   
ATOM     2   C7  UNL     1       0.835  -0.310  -0.684  1.00  0.00     0.046 A   
ATOM     3   C8  UNL     1       1.242   0.539   0.321  1.00  0.00     0.127 A   
ATOM     4   N5  UNL     1       2.587   0.775   0.193  1.00  0.00    -0.132 NA  
ATOM     5   N6  UNL     1       3.020   0.120  -0.871  1.00  0.00    -0.076 NA  
ATOM     6   H10 UNL     1      -0.119  -0.739  -0.959  1.00  0.00     0.083 HD  
ENDROOT
BRANCH   1   7
ATOM     7   C6  UNL     1       2.106  -1.226  -2.687  1.00  0.00     0.172 C   
BRANCH   7   8
ATOM     8   C5  UNL     1       1.347  -0.547  -3.773  1.00  0.00     0.010 A   
ATOM     9   C3  UNL     1       0.292  -1.024  -4.535  1.00  0.00     0.031 A   
ATOM     10  N1  UNL     1      -0.035  -0.011  -5.399  1.00  0.00    -0.242 N   
ATOM     11  N2  UNL     1       0.704   1.094  -5.226  1.00  0.00    -0.192 NA  
ATOM     12  C4  UNL     1       1.565   0.761  -4.267  1.00  0.00     0.138 A   
ATOM     13  H6  UNL     1      -0.749  -0.002  -6.121  1.00  0.00     0.175 HD  
BRANCH   9  14
ATOM     14  C2  UNL     1      -0.431  -2.327  -4.551  1.00  0.00     0.050 C   
ATOM     15  C1  UNL     1       0.293  -3.362  -5.398  1.00  0.00     0.010 C   
ENDBRANCH   9  14
ENDBRANCH   7   8
ENDBRANCH   1   7
BRANCH   3  16
ATOM     16  C9  UNL     1       0.490   1.165   1.448  1.00  0.00     0.114 C   
BRANCH  16  17
ATOM     17  C10 UNL     1       0.010   2.592   1.115  1.00  0.00     0.064 C   
BRANCH  17  18
ATOM     18  C11 UNL     1      -1.008   2.694  -0.042  1.00  0.00    -0.012 C   
ATOM     19  C12 UNL     1      -1.342   4.165  -0.305  1.00  0.00     0.007 C   
ATOM     20  C13 UNL     1      -2.295   1.918   0.244  1.00  0.00     0.007 C   
ENDBRANCH  17  18
ENDBRANCH  16  17
BRANCH  16  21
ATOM     21  N4  UNL     1       1.384   1.283   2.669  1.00  0.00     0.249 N   
ATOM     22  H21 UNL     1       2.244   1.749   2.348  1.00  0.00     0.199 HD  
ATOM     23  H22 UNL     1       0.947   1.894   3.365  1.00  0.00     0.199 HD  
BRANCH  21  24
ATOM     24  C14 UNL     1       1.790   0.004   3.323  1.00  0.00     0.164 C   
BRANCH  24  25
ATOM     25  C15 UNL     1       0.632  -0.732   3.938  1.00  0.00    -0.002 A   
ATOM     26  C16 UNL     1       0.042  -0.267   5.138  1.00  0.00     0.012 A   
ATOM     27  C20 UNL     1       0.105  -1.870   3.304  1.00  0.00     0.045 A   
ATOM     28  C17 UNL     1      -1.061  -0.922   5.697  1.00  0.00     0.037 A   
ATOM     29  C19 UNL     1      -0.984  -2.491   3.880  1.00  0.00     0.109 A   
ATOM     30  C18 UNL     1      -1.551  -2.030   5.042  1.00  0.00     0.108 A   
ATOM     31  O1  UNL     1      -1.617  -3.589   3.392  1.00  0.00    -0.316 OA  
ATOM     32  O2  UNL     1      -2.611  -2.783   5.435  1.00  0.00    -0.316 OA  
ATOM     33  C21 UNL     1      -2.629  -3.794   4.404  1.00  0.00     0.337 C   
ENDBRANCH  24  25
ENDBRANCH  21  24
ENDBRANCH  16  21
ENDBRANCH   3  16
TORSDOF 9
