REMARK SMILES CC(C)C[C@H]([NH2+]Cc1ccc2c(c1)OCO2)c1cn(COCc2ccccc2)nn1
REMARK SMILES IDX 17 1 18 2 19 3 29 4 30 5 5 7 4 8 2 9 1 10 3 11 6 12 7 15
REMARK SMILES IDX 8 16 9 17 13 18 10 19 12 20 11 21 14 22 16 23 15 24 20 25
REMARK SMILES IDX 21 26 22 27 23 28 24 29 28 30 25 31 27 32 26 33
REMARK H PARENT 18 6 6 13 6 14
ROOT
ATOM     1   C14 UNL     1      -2.344  -0.693   1.558  1.00  0.00     0.127 A   
ATOM     2   C15 UNL     1      -3.053  -1.109   0.452  1.00  0.00     0.048 A   
ATOM     3   N2  UNL     1      -3.478  -2.366   0.786  1.00  0.00    -0.186 N   
ATOM     4   N3  UNL     1      -3.073  -2.700   2.027  1.00  0.00    -0.074 NA  
ATOM     5   N4  UNL     1      -2.376  -1.684   2.510  1.00  0.00    -0.132 NA  
ATOM     6   H20 UNL     1      -3.260  -0.672  -0.516  1.00  0.00     0.083 HD  
ENDROOT
BRANCH   1   7
ATOM     7   C5  UNL     1      -1.534   0.534   1.837  1.00  0.00     0.114 C   
BRANCH   7   8
ATOM     8   C4  UNL     1      -1.437   1.521   0.663  1.00  0.00     0.064 C   
BRANCH   8   9
ATOM     9   C2  UNL     1      -0.700   2.846   0.954  1.00  0.00    -0.012 C   
ATOM     10  C1  UNL     1      -1.393   3.671   2.041  1.00  0.00     0.007 C   
ATOM     11  C3  UNL     1      -0.599   3.671  -0.333  1.00  0.00     0.007 C   
ENDBRANCH   8   9
ENDBRANCH   7   8
BRANCH   7  12
ATOM     12  N1  UNL     1      -0.178   0.145   2.369  1.00  0.00     0.249 N   
ATOM     13  H11 UNL     1      -0.388  -0.443   3.188  1.00  0.00     0.199 HD  
ATOM     14  H12 UNL     1       0.326   0.963   2.724  1.00  0.00     0.199 HD  
BRANCH  12  15
ATOM     15  C6  UNL     1       0.712  -0.687   1.498  1.00  0.00     0.164 C   
BRANCH  15  16
ATOM     16  C7  UNL     1       1.752   0.123   0.771  1.00  0.00    -0.002 A   
ATOM     17  C8  UNL     1       1.703   0.255  -0.637  1.00  0.00     0.012 A   
ATOM     18  C12 UNL     1       2.785   0.757   1.487  1.00  0.00     0.045 A   
ATOM     19  C9  UNL     1       2.654   1.018  -1.326  1.00  0.00     0.037 A   
ATOM     20  C11 UNL     1       3.706   1.504   0.779  1.00  0.00     0.109 A   
ATOM     21  C10 UNL     1       3.641   1.633  -0.587  1.00  0.00     0.108 A   
ATOM     22  O1  UNL     1       4.753   2.185   1.316  1.00  0.00    -0.316 OA  
ATOM     23  O2  UNL     1       4.640   2.409  -1.084  1.00  0.00    -0.316 OA  
ATOM     24  C13 UNL     1       5.354   2.747   0.125  1.00  0.00     0.337 C   
ENDBRANCH  15  16
ENDBRANCH  12  15
ENDBRANCH   7  12
ENDBRANCH   1   7
BRANCH   3  25
ATOM     25  C16 UNL     1      -4.225  -3.299  -0.035  1.00  0.00     0.294 C   
BRANCH  25  26
ATOM     26  O3  UNL     1      -3.399  -3.774  -1.099  1.00  0.00    -0.356 OA  
BRANCH  26  27
ATOM     27  C17 UNL     1      -2.514  -4.824  -0.700  1.00  0.00     0.198 C   
BRANCH  27  28
ATOM     28  C18 UNL     1      -1.090  -4.324  -0.626  1.00  0.00    -0.022 A   
ATOM     29  C19 UNL     1      -0.293  -4.610   0.493  1.00  0.00     0.006 A   
ATOM     30  C23 UNL     1      -0.512  -3.651  -1.713  1.00  0.00     0.006 A   
ATOM     31  C20 UNL     1       1.056  -4.244   0.518  1.00  0.00     0.000 A   
ATOM     32  C22 UNL     1       0.837  -3.285  -1.688  1.00  0.00     0.000 A   
ATOM     33  C21 UNL     1       1.622  -3.585  -0.574  1.00  0.00     0.000 A   
ENDBRANCH  27  28
ENDBRANCH  26  27
ENDBRANCH  25  26
ENDBRANCH   3  25
TORSDOF 10
