REMARK SMILES Cc1cccnc1CCn1cc([C@@H]([NH2+]Cc2ccc3c(c2)OCO3)C(C)(C)C)nn1
REMARK SMILES IDX 10 1 11 2 12 3 29 4 30 5 9 7 8 8 7 9 2 10 3 11 4 12 6 13
REMARK SMILES IDX 5 14 1 15 13 16 14 17 15 20 16 21 17 22 21 23 18 24 20 25
REMARK SMILES IDX 19 26 22 27 24 28 23 29 25 30 26 31 27 32 28 33
REMARK H PARENT 11 6 14 18 14 19
ROOT
ATOM     1   N2  UNL     1       2.538   0.862  -0.821  1.00  0.00    -0.212 N   
ATOM     2   C9  UNL     1       2.370  -0.265  -0.067  1.00  0.00     0.045 A   
ATOM     3   C10 UNL     1       1.011  -0.481  -0.091  1.00  0.00     0.127 A   
ATOM     4   N4  UNL     1       0.404   0.550  -0.764  1.00  0.00    -0.132 NA  
ATOM     5   N5  UNL     1       1.347   1.375  -1.189  1.00  0.00    -0.076 NA  
ATOM     6   H11 UNL     1       3.208  -0.809   0.347  1.00  0.00     0.083 HD  
ENDROOT
BRANCH   1   7
ATOM     7   C8  UNL     1       3.772   1.525  -1.190  1.00  0.00     0.140 C   
BRANCH   7   8
ATOM     8   C7  UNL     1       4.143   1.318  -2.659  1.00  0.00     0.078 C   
BRANCH   8   9
ATOM     9   C6  UNL     1       4.598  -0.082  -3.016  1.00  0.00     0.045 A   
ATOM     10  C2  UNL     1       4.817  -0.447  -4.353  1.00  0.00    -0.029 A   
ATOM     11  C3  UNL     1       5.290  -1.739  -4.613  1.00  0.00     0.007 A   
ATOM     12  C4  UNL     1       5.536  -2.615  -3.564  1.00  0.00     0.020 A   
ATOM     13  N1  UNL     1       4.837  -0.934  -1.983  1.00  0.00    -0.261 NA  
ATOM     14  C5  UNL     1       5.302  -2.169  -2.279  1.00  0.00     0.111 A   
ATOM     15  C1  UNL     1       4.592   0.505  -5.493  1.00  0.00     0.046 C   
ENDBRANCH   8   9
ENDBRANCH   7   8
ENDBRANCH   1   7
BRANCH   3  16
ATOM     16  C11 UNL     1       0.171  -1.559   0.518  1.00  0.00     0.120 C   
BRANCH  16  17
ATOM     17  N3  UNL     1      -1.153  -0.956   0.929  1.00  0.00     0.250 N   
ATOM     18  H13 UNL     1      -1.445  -0.342   0.152  1.00  0.00     0.199 HD  
ATOM     19  H14 UNL     1      -1.894  -1.653   1.029  1.00  0.00     0.199 HD  
BRANCH  17  20
ATOM     20  C12 UNL     1      -1.115  -0.114   2.156  1.00  0.00     0.164 C   
BRANCH  20  21
ATOM     21  C13 UNL     1      -2.464   0.499   2.411  1.00  0.00    -0.002 A   
ATOM     22  C14 UNL     1      -3.395  -0.143   3.261  1.00  0.00     0.012 A   
ATOM     23  C18 UNL     1      -2.827   1.691   1.759  1.00  0.00     0.045 A   
ATOM     24  C15 UNL     1      -4.668   0.399   3.470  1.00  0.00     0.037 A   
ATOM     25  C17 UNL     1      -4.091   2.198   1.987  1.00  0.00     0.109 A   
ATOM     26  C16 UNL     1      -4.985   1.571   2.818  1.00  0.00     0.108 A   
ATOM     27  O1  UNL     1      -4.600   3.334   1.440  1.00  0.00    -0.316 OA  
ATOM     28  O2  UNL     1      -6.169   2.234   2.903  1.00  0.00    -0.316 OA  
ATOM     29  C19 UNL     1      -5.916   3.362   2.038  1.00  0.00     0.337 C   
ENDBRANCH  20  21
ENDBRANCH  17  20
ENDBRANCH  16  17
BRANCH  16  30
ATOM     30  C20 UNL     1      -0.062  -2.798  -0.416  1.00  0.00     0.010 C   
ATOM     31  C21 UNL     1      -0.879  -2.446  -1.675  1.00  0.00     0.017 C   
ATOM     32  C22 UNL     1      -0.809  -3.914   0.351  1.00  0.00     0.017 C   
ATOM     33  C23 UNL     1       1.292  -3.394  -0.866  1.00  0.00     0.017 C   
ENDBRANCH  16  30
ENDBRANCH   3  16
TORSDOF 8
