REMARK SMILES Cc1cc(C)n(CCn2cc([C@H](CC(C)C)[NH2+]Cc3ccc4c(c3)OCO4)nn2)n1
REMARK SMILES IDX 9 1 10 2 11 3 28 4 29 5 8 7 7 8 6 9 2 10 3 11 30 12 4 13
REMARK SMILES IDX 1 14 5 15 12 16 13 17 14 18 15 19 16 20 17 21 18 24 19 25
REMARK SMILES IDX 20 26 24 27 21 28 23 29 22 30 25 31 27 32 26 33
REMARK H PARENT 10 6 17 22 17 23
ROOT
ATOM     1   N2  UNL     1       0.560  -0.267  -3.123  1.00  0.00    -0.210 N   
ATOM     2   C8  UNL     1       0.498  -1.059  -2.013  1.00  0.00     0.045 A   
ATOM     3   C9  UNL     1      -0.850  -1.272  -1.835  1.00  0.00     0.127 A   
ATOM     4   N4  UNL     1      -1.542  -0.657  -2.846  1.00  0.00    -0.132 NA  
ATOM     5   N5  UNL     1      -0.667  -0.044  -3.627  1.00  0.00    -0.076 NA  
ATOM     6   H12 UNL     1       1.378  -1.316  -1.439  1.00  0.00     0.083 HD  
ENDROOT
BRANCH   1   7
ATOM     7   C7  UNL     1       1.715   0.412  -3.672  1.00  0.00     0.155 C   
BRANCH   7   8
ATOM     8   C6  UNL     1       1.622   1.924  -3.507  1.00  0.00     0.153 C   
BRANCH   8   9
ATOM     9   N1  UNL     1       1.467   2.348  -2.126  1.00  0.00    -0.228 N   
ATOM     10  C2  UNL     1       1.962   2.466  -0.065  1.00  0.00     0.057 A   
ATOM     11  C3  UNL     1       0.930   3.402  -0.280  1.00  0.00     0.045 A   
ATOM     12  N6  UNL     1       2.242   1.780  -1.181  1.00  0.00    -0.187 NA  
ATOM     13  C4  UNL     1       0.612   3.296  -1.618  1.00  0.00     0.027 A   
ATOM     14  C1  UNL     1       2.705   2.202   1.192  1.00  0.00     0.068 C   
ATOM     15  C5  UNL     1      -0.384   4.037  -2.431  1.00  0.00     0.063 C   
ENDBRANCH   8   9
ENDBRANCH   7   8
ENDBRANCH   1   7
BRANCH   3  16
ATOM     16  C10 UNL     1      -1.598  -1.914  -0.718  1.00  0.00     0.114 C   
BRANCH  16  17
ATOM     17  C11 UNL     1      -2.180  -3.286  -1.103  1.00  0.00     0.064 C   
BRANCH  17  18
ATOM     18  C12 UNL     1      -1.129  -4.372  -1.424  1.00  0.00    -0.012 C   
ATOM     19  C13 UNL     1      -0.206  -4.655  -0.239  1.00  0.00     0.007 C   
ATOM     20  C14 UNL     1      -1.834  -5.665  -1.847  1.00  0.00     0.007 C   
ENDBRANCH  17  18
ENDBRANCH  16  17
BRANCH  16  21
ATOM     21  N3  UNL     1      -2.765  -1.029  -0.322  1.00  0.00     0.249 N   
ATOM     22  H23 UNL     1      -3.390  -1.531   0.317  1.00  0.00     0.199 HD  
ATOM     23  H24 UNL     1      -3.288  -0.844  -1.191  1.00  0.00     0.199 HD  
BRANCH  21  24
ATOM     24  C15 UNL     1      -2.412   0.299   0.271  1.00  0.00     0.164 C   
BRANCH  24  25
ATOM     25  C16 UNL     1      -1.873   0.182   1.670  1.00  0.00    -0.002 A   
ATOM     26  C17 UNL     1      -2.760   0.070   2.771  1.00  0.00     0.012 A   
ATOM     27  C21 UNL     1      -0.485   0.138   1.891  1.00  0.00     0.045 A   
ATOM     28  C18 UNL     1      -2.272  -0.083   4.073  1.00  0.00     0.037 A   
ATOM     29  C20 UNL     1      -0.038  -0.021   3.186  1.00  0.00     0.109 A   
ATOM     30  C19 UNL     1      -0.907  -0.129   4.245  1.00  0.00     0.108 A   
ATOM     31  O1  UNL     1       1.261  -0.101   3.570  1.00  0.00    -0.316 OA  
ATOM     32  O2  UNL     1      -0.262  -0.288   5.430  1.00  0.00    -0.316 OA  
ATOM     33  C22 UNL     1       1.117  -0.265   4.999  1.00  0.00     0.337 C   
ENDBRANCH  24  25
ENDBRANCH  21  24
ENDBRANCH  16  21
ENDBRANCH   3  16
TORSDOF 9
