REMARK SMILES CC(C)(C)[C@H]([NH2+]Cc1ccc2c(c1)OCO2)c1cn([C@H](CO)c2cccnc2Cl)nn1
REMARK SMILES IDX 17 1 18 2 19 3 30 4 31 5 5 7 2 8 1 9 3 10 4 11 6 12 7 15
REMARK SMILES IDX 8 16 9 17 13 18 10 19 12 20 11 21 14 22 16 23 15 24 20 25
REMARK SMILES IDX 21 26 22 27 23 29 24 30 28 31 25 32 27 33 26 34 29 35
REMARK H PARENT 18 6 6 13 6 14 22 28
ROOT
ATOM     1   C14 UNL     1      -1.493  -0.706  -0.613  1.00  0.00     0.127 A   
ATOM     2   C15 UNL     1      -0.854  -0.640   0.604  1.00  0.00     0.046 A   
ATOM     3   N2  UNL     1      -0.536  -1.941   0.886  1.00  0.00    -0.202 N   
ATOM     4   N4  UNL     1      -0.954  -2.757  -0.104  1.00  0.00    -0.075 NA  
ATOM     5   N5  UNL     1      -1.520  -2.009  -1.036  1.00  0.00    -0.132 NA  
ATOM     6   H20 UNL     1      -0.605   0.174   1.271  1.00  0.00     0.083 HD  
ENDROOT
BRANCH   1   7
ATOM     7   C5  UNL     1      -2.034   0.365  -1.506  1.00  0.00     0.120 C   
BRANCH   7   8
ATOM     8   C2  UNL     1      -3.579   0.599  -1.381  1.00  0.00     0.010 C   
ATOM     9   C1  UNL     1      -3.930   1.010   0.068  1.00  0.00     0.017 C   
ATOM     10  C3  UNL     1      -4.412  -0.648  -1.740  1.00  0.00     0.017 C   
ATOM     11  C4  UNL     1      -4.015   1.762  -2.300  1.00  0.00     0.017 C   
ENDBRANCH   7   8
BRANCH   7  12
ATOM     12  N1  UNL     1      -1.650   0.023  -2.933  1.00  0.00     0.250 N   
ATOM     13  H11 UNL     1      -1.258  -0.933  -2.901  1.00  0.00     0.199 HD  
ATOM     14  H12 UNL     1      -2.476  -0.064  -3.530  1.00  0.00     0.199 HD  
BRANCH  12  15
ATOM     15  C6  UNL     1      -0.654   0.916  -3.584  1.00  0.00     0.164 C   
BRANCH  15  16
ATOM     16  C7  UNL     1       0.701   0.886  -2.935  1.00  0.00    -0.002 A   
ATOM     17  C8  UNL     1       1.146   1.978  -2.151  1.00  0.00     0.012 A   
ATOM     18  C12 UNL     1       1.538  -0.232  -3.095  1.00  0.00     0.045 A   
ATOM     19  C9  UNL     1       2.402   1.959  -1.535  1.00  0.00     0.037 A   
ATOM     20  C11 UNL     1       2.775  -0.213  -2.484  1.00  0.00     0.109 A   
ATOM     21  C10 UNL     1       3.194   0.849  -1.724  1.00  0.00     0.108 A   
ATOM     22  O1  UNL     1       3.709  -1.196  -2.564  1.00  0.00    -0.316 OA  
ATOM     23  O2  UNL     1       4.444   0.669  -1.223  1.00  0.00    -0.316 OA  
ATOM     24  C13 UNL     1       4.775  -0.627  -1.770  1.00  0.00     0.337 C   
ENDBRANCH  15  16
ENDBRANCH  12  15
ENDBRANCH   7  12
ENDBRANCH   1   7
BRANCH   3  25
ATOM     25  C16 UNL     1       0.170  -2.490   2.046  1.00  0.00     0.158 C   
BRANCH  25  26
ATOM     26  C17 UNL     1      -0.770  -2.565   3.269  1.00  0.00     0.186 C   
BRANCH  26  27
ATOM     27  O3  UNL     1      -1.309  -1.296   3.642  1.00  0.00    -0.394 OA  
ATOM     28  H24 UNL     1      -1.894  -1.450   4.408  1.00  0.00     0.210 HD  
ENDBRANCH  26  27
ENDBRANCH  25  26
BRANCH  25  29
ATOM     29  C18 UNL     1       1.511  -1.799   2.233  1.00  0.00     0.014 A   
ATOM     30  C19 UNL     1       1.734  -0.824   3.217  1.00  0.00     0.010 A   
ATOM     31  C22 UNL     1       2.598  -2.083   1.401  1.00  0.00     0.134 A   
ATOM     32  C20 UNL     1       2.976  -0.202   3.328  1.00  0.00     0.021 A   
ATOM     33  N3  UNL     1       3.810  -1.494   1.486  1.00  0.00    -0.244 NA  
ATOM     34  C21 UNL     1       3.976  -0.567   2.447  1.00  0.00     0.113 A   
ATOM     35  CL1 UNL     1       2.537  -3.244   0.131  1.00  0.00    -0.062 Cl  
ENDBRANCH  25  29
ENDBRANCH   3  25
TORSDOF 9
