REMARK SMILES CC(C)(C)[C@H]([NH2+]Cc1ccc2c(c1)OCO2)c1cn([C@@H](CO)c2cccnc2Cl)nn1
REMARK SMILES IDX 17 1 18 2 19 3 30 4 31 5 5 7 2 8 1 9 3 10 4 11 6 12 7 15
REMARK SMILES IDX 8 16 9 17 13 18 10 19 12 20 11 21 14 22 16 23 15 24 20 25
REMARK SMILES IDX 21 26 22 27 23 29 24 30 28 31 25 32 27 33 26 34 29 35
REMARK H PARENT 18 6 6 13 6 14 22 28
ROOT
ATOM     1   C14 UNL     1      -1.041  -0.025   0.990  1.00  0.00     0.127 A   
ATOM     2   C15 UNL     1      -2.181  -0.296   0.267  1.00  0.00     0.046 A   
ATOM     3   N2  UNL     1      -2.788   0.928   0.127  1.00  0.00    -0.202 N   
ATOM     4   N4  UNL     1      -2.090   1.876   0.784  1.00  0.00    -0.075 NA  
ATOM     5   N5  UNL     1      -1.015   1.309   1.302  1.00  0.00    -0.132 NA  
ATOM     6   H20 UNL     1      -2.577  -1.193  -0.189  1.00  0.00     0.083 HD  
ENDROOT
BRANCH   1   7
ATOM     7   C5  UNL     1       0.134  -0.886   1.349  1.00  0.00     0.120 C   
BRANCH   7   8
ATOM     8   C2  UNL     1       0.065  -1.503   2.788  1.00  0.00     0.010 C   
ATOM     9   C1  UNL     1       1.237  -2.489   3.005  1.00  0.00     0.017 C   
ATOM     10  C3  UNL     1       0.119  -0.436   3.900  1.00  0.00     0.017 C   
ATOM     11  C4  UNL     1      -1.241  -2.314   2.956  1.00  0.00     0.017 C   
ENDBRANCH   7   8
BRANCH   7  12
ATOM     12  N1  UNL     1       1.391  -0.065   1.183  1.00  0.00     0.250 N   
ATOM     13  H11 UNL     1       2.193  -0.463   1.678  1.00  0.00     0.199 HD  
ATOM     14  H12 UNL     1       1.206   0.849   1.625  1.00  0.00     0.199 HD  
BRANCH  12  15
ATOM     15  C6  UNL     1       1.792   0.211  -0.227  1.00  0.00     0.164 C   
BRANCH  15  16
ATOM     16  C7  UNL     1       2.970   1.142  -0.260  1.00  0.00    -0.002 A   
ATOM     17  C8  UNL     1       2.767   2.543  -0.244  1.00  0.00     0.012 A   
ATOM     18  C12 UNL     1       4.279   0.630  -0.249  1.00  0.00     0.045 A   
ATOM     19  C9  UNL     1       3.852   3.425  -0.228  1.00  0.00     0.037 A   
ATOM     20  C11 UNL     1       5.326   1.529  -0.233  1.00  0.00     0.109 A   
ATOM     21  C10 UNL     1       5.119   2.886  -0.222  1.00  0.00     0.108 A   
ATOM     22  O1  UNL     1       6.645   1.204  -0.220  1.00  0.00    -0.316 OA  
ATOM     23  O2  UNL     1       6.283   3.587  -0.204  1.00  0.00    -0.316 OA  
ATOM     24  C13 UNL     1       7.250   2.517  -0.234  1.00  0.00     0.337 C   
ENDBRANCH  15  16
ENDBRANCH  12  15
ENDBRANCH   7  12
ENDBRANCH   1   7
BRANCH   3  25
ATOM     25  C16 UNL     1      -3.984   1.254  -0.651  1.00  0.00     0.158 C   
BRANCH  25  26
ATOM     26  C17 UNL     1      -4.393   2.740  -0.601  1.00  0.00     0.186 C   
BRANCH  26  27
ATOM     27  O3  UNL     1      -5.729   2.890  -1.087  1.00  0.00    -0.394 OA  
ATOM     28  H24 UNL     1      -5.938   3.842  -1.075  1.00  0.00     0.210 HD  
ENDBRANCH  26  27
ENDBRANCH  25  26
BRANCH  25  29
ATOM     29  C18 UNL     1      -3.877   0.740  -2.080  1.00  0.00     0.014 A   
ATOM     30  C19 UNL     1      -4.910  -0.064  -2.592  1.00  0.00     0.010 A   
ATOM     31  C22 UNL     1      -2.825   1.018  -2.953  1.00  0.00     0.134 A   
ATOM     32  C20 UNL     1      -4.842  -0.558  -3.892  1.00  0.00     0.021 A   
ATOM     33  N3  UNL     1      -2.721   0.528  -4.207  1.00  0.00    -0.244 NA  
ATOM     34  C21 UNL     1      -3.735  -0.239  -4.654  1.00  0.00     0.113 A   
ATOM     35  CL1 UNL     1      -1.471   2.001  -2.549  1.00  0.00    -0.062 Cl  
ENDBRANCH  25  29
ENDBRANCH   3  25
TORSDOF 9
