REMARK SMILES COc1cc(F)ccc1CCn1cc([C@@H]([NH2+]Cc2ccc3c(c2)OCO3)C(C)C)nn1
REMARK SMILES IDX 12 1 13 2 14 3 30 4 31 5 11 7 10 8 9 9 3 10 4 11 5 12 8 13
REMARK SMILES IDX 7 14 6 15 2 16 1 17 15 18 16 19 17 22 18 23 19 24 23 25
REMARK SMILES IDX 20 26 22 27 21 28 24 29 26 30 25 31 27 32 28 33 29 34
REMARK H PARENT 13 6 16 20 16 21
ROOT
ATOM     1   N1  UNL     1       1.145   1.055   1.956  1.00  0.00    -0.212 N   
ATOM     2   C10 UNL     1       0.010   1.096   1.198  1.00  0.00     0.045 A   
ATOM     3   C11 UNL     1      -0.607  -0.107   1.462  1.00  0.00     0.127 A   
ATOM     4   N3  UNL     1       0.146  -0.809   2.370  1.00  0.00    -0.132 NA  
ATOM     5   N4  UNL     1       1.215  -0.088   2.662  1.00  0.00    -0.076 NA  
ATOM     6   H11 UNL     1      -0.223   1.926   0.545  1.00  0.00     0.083 HD  
ENDROOT
BRANCH   1   7
ATOM     7   C9  UNL     1       2.188   2.053   2.065  1.00  0.00     0.139 C   
BRANCH   7   8
ATOM     8   C8  UNL     1       3.349   1.816   1.099  1.00  0.00     0.059 C   
BRANCH   8   9
ATOM     9   C7  UNL     1       3.003   2.148  -0.336  1.00  0.00    -0.016 A   
ATOM     10  C2  UNL     1       2.645   1.159  -1.266  1.00  0.00     0.081 A   
ATOM     11  C3  UNL     1       2.286   1.498  -2.571  1.00  0.00     0.073 A   
ATOM     12  C4  UNL     1       2.317   2.830  -2.960  1.00  0.00     0.125 A   
ATOM     13  C6  UNL     1       3.028   3.490  -0.757  1.00  0.00     0.009 A   
ATOM     14  C5  UNL     1       2.687   3.828  -2.067  1.00  0.00     0.040 A   
ATOM     15  F1  UNL     1       1.972   3.159  -4.211  1.00  0.00    -0.207 F   
BRANCH  10  16
ATOM     16  O1  UNL     1       2.564  -0.150  -0.863  1.00  0.00    -0.349 OA  
ATOM     17  C1  UNL     1       3.644  -0.908  -1.417  1.00  0.00     0.203 C   
ENDBRANCH  10  16
ENDBRANCH   8   9
ENDBRANCH   7   8
ENDBRANCH   1   7
BRANCH   3  18
ATOM     18  C12 UNL     1      -1.832  -0.733   0.884  1.00  0.00     0.117 C   
BRANCH  18  19
ATOM     19  N2  UNL     1      -1.655  -2.236   0.809  1.00  0.00     0.249 N   
ATOM     20  H13 UNL     1      -1.312  -2.527   1.736  1.00  0.00     0.199 HD  
ATOM     21  H14 UNL     1      -2.555  -2.698   0.651  1.00  0.00     0.199 HD  
BRANCH  19  22
ATOM     22  C13 UNL     1      -0.657  -2.734  -0.186  1.00  0.00     0.164 C   
BRANCH  22  23
ATOM     23  C14 UNL     1      -1.092  -2.527  -1.609  1.00  0.00    -0.002 A   
ATOM     24  C15 UNL     1      -2.083  -3.354  -2.189  1.00  0.00     0.012 A   
ATOM     25  C19 UNL     1      -0.529  -1.488  -2.369  1.00  0.00     0.045 A   
ATOM     26  C16 UNL     1      -2.511  -3.147  -3.505  1.00  0.00     0.037 A   
ATOM     27  C18 UNL     1      -0.970  -1.312  -3.663  1.00  0.00     0.109 A   
ATOM     28  C17 UNL     1      -1.936  -2.115  -4.215  1.00  0.00     0.108 A   
ATOM     29  O2  UNL     1      -0.527  -0.361  -4.527  1.00  0.00    -0.316 OA  
ATOM     30  O3  UNL     1      -2.227  -1.771  -5.496  1.00  0.00    -0.316 OA  
ATOM     31  C20 UNL     1      -1.311  -0.673  -5.702  1.00  0.00     0.337 C   
ENDBRANCH  22  23
ENDBRANCH  19  22
ENDBRANCH  18  19
BRANCH  18  32
ATOM     32  C21 UNL     1      -3.133  -0.436   1.676  1.00  0.00     0.037 C   
ATOM     33  C22 UNL     1      -3.503   1.050   1.616  1.00  0.00     0.014 C   
ATOM     34  C23 UNL     1      -3.106  -0.902   3.136  1.00  0.00     0.014 C   
ENDBRANCH  18  32
ENDBRANCH   3  18
TORSDOF 9
