REMARK SMILES Cc1cc(F)cc(Cn2cc([C@@H]([NH2+]Cc3ccc4c(c3)OCO4)C(C)C)nn2)c1
REMARK SMILES IDX 9 1 10 2 11 3 27 4 28 5 8 7 7 8 2 9 3 10 29 11 4 12 6 13
REMARK SMILES IDX 1 14 5 15 12 16 13 17 14 20 15 21 16 22 20 23 17 24 19 25
REMARK SMILES IDX 18 26 21 27 23 28 22 29 24 30 25 31 26 32
REMARK H PARENT 10 6 13 18 13 19
ROOT
ATOM     1   N1  UNL     1      -2.675  -1.404   1.966  1.00  0.00    -0.208 N   
ATOM     2   C8  UNL     1      -1.779  -1.571   0.946  1.00  0.00     0.046 A   
ATOM     3   C9  UNL     1      -0.627  -1.980   1.580  1.00  0.00     0.127 A   
ATOM     4   N3  UNL     1      -0.870  -2.098   2.924  1.00  0.00    -0.132 NA  
ATOM     5   N4  UNL     1      -2.123  -1.737   3.149  1.00  0.00    -0.076 NA  
ATOM     6   H8  UNL     1      -2.018  -1.329  -0.081  1.00  0.00     0.083 HD  
ENDROOT
BRANCH   1   7
ATOM     7   C7  UNL     1      -4.005  -0.821   1.902  1.00  0.00     0.169 C   
BRANCH   7   8
ATOM     8   C6  UNL     1      -3.911   0.668   1.668  1.00  0.00    -0.025 A   
ATOM     9   C2  UNL     1      -4.054   2.594   0.170  1.00  0.00    -0.048 A   
ATOM     10  C3  UNL     1      -3.646   3.428   1.216  1.00  0.00     0.042 A   
ATOM     11  C22 UNL     1      -4.195   1.218   0.406  1.00  0.00     0.009 A   
ATOM     12  C4  UNL     1      -3.369   2.885   2.465  1.00  0.00     0.123 A   
ATOM     13  C5  UNL     1      -3.496   1.522   2.701  1.00  0.00     0.044 A   
ATOM     14  C1  UNL     1      -4.401   3.176  -1.170  1.00  0.00     0.044 C   
ATOM     15  F1  UNL     1      -2.958   3.686   3.456  1.00  0.00    -0.207 F   
ENDBRANCH   7   8
ENDBRANCH   1   7
BRANCH   3  16
ATOM     16  C10 UNL     1       0.753  -2.184   1.048  1.00  0.00     0.117 C   
BRANCH  16  17
ATOM     17  N2  UNL     1       1.798  -1.681   2.018  1.00  0.00     0.249 N   
ATOM     18  H10 UNL     1       2.736  -1.889   1.668  1.00  0.00     0.199 HD  
ATOM     19  H11 UNL     1       1.669  -2.206   2.893  1.00  0.00     0.199 HD  
BRANCH  17  20
ATOM     20  C11 UNL     1       1.730  -0.230   2.387  1.00  0.00     0.164 C   
BRANCH  20  21
ATOM     21  C12 UNL     1       1.747   0.702   1.207  1.00  0.00    -0.002 A   
ATOM     22  C13 UNL     1       0.592   1.456   0.885  1.00  0.00     0.012 A   
ATOM     23  C17 UNL     1       2.893   0.814   0.401  1.00  0.00     0.045 A   
ATOM     24  C14 UNL     1       0.570   2.300  -0.229  1.00  0.00     0.037 A   
ATOM     25  C16 UNL     1       2.837   1.656  -0.690  1.00  0.00     0.109 A   
ATOM     26  C15 UNL     1       1.709   2.377  -0.998  1.00  0.00     0.108 A   
ATOM     27  O1  UNL     1       3.848   1.871  -1.572  1.00  0.00    -0.316 OA  
ATOM     28  O2  UNL     1       1.868   3.137  -2.112  1.00  0.00    -0.316 OA  
ATOM     29  C18 UNL     1       3.240   2.844  -2.453  1.00  0.00     0.337 C   
ENDBRANCH  20  21
ENDBRANCH  17  20
ENDBRANCH  16  17
BRANCH  16  30
ATOM     30  C19 UNL     1       1.032  -3.665   0.671  1.00  0.00     0.037 C   
ATOM     31  C20 UNL     1       1.110  -4.619   1.869  1.00  0.00     0.014 C   
ATOM     32  C21 UNL     1       2.303  -3.802  -0.176  1.00  0.00     0.014 C   
ENDBRANCH  16  30
ENDBRANCH   3  16
TORSDOF 7
