REMARK SMILES Cc1ccc(N([O-])[O-])cc1Cn1cc([C@@H]([NH2+]Cc2ccc3c(c2)OCO3)C2CCCC2)nn1
REMARK SMILES IDX 12 1 13 2 14 3 32 4 33 5 11 7 10 8 2 9 3 10 4 11 9 12 5 13
REMARK SMILES IDX 1 14 6 15 7 16 8 17 15 18 16 19 17 22 18 23 19 24 23 25
REMARK SMILES IDX 20 26 22 27 21 28 24 29 26 30 25 31 27 32 28 33 31 34 29 35
REMARK SMILES IDX 30 36
REMARK H PARENT 13 6 16 20 16 21
ROOT
ATOM     1   N2  UNL     1       1.327   0.304  -1.558  1.00  0.00    -0.208 N   
ATOM     2   C9  UNL     1       0.512   1.205  -0.927  1.00  0.00     0.046 A   
ATOM     3   C10 UNL     1       0.815   1.048   0.407  1.00  0.00     0.127 A   
ATOM     4   N4  UNL     1       1.792   0.094   0.539  1.00  0.00    -0.132 NA  
ATOM     5   N5  UNL     1       2.103  -0.345  -0.669  1.00  0.00    -0.076 NA  
ATOM     6   H9  UNL     1      -0.183   1.835  -1.463  1.00  0.00     0.083 HD  
ENDROOT
BRANCH   1   7
ATOM     7   C8  UNL     1       1.457   0.059  -2.985  1.00  0.00     0.169 C   
BRANCH   7   8
ATOM     8   C7  UNL     1       0.586  -1.094  -3.438  1.00  0.00    -0.024 A   
ATOM     9   C2  UNL     1       1.116  -2.359  -3.776  1.00  0.00    -0.046 A   
ATOM     10  C3  UNL     1       0.253  -3.379  -4.220  1.00  0.00     0.006 A   
ATOM     11  C4  UNL     1      -1.124  -3.173  -4.308  1.00  0.00     0.031 A   
ATOM     12  C6  UNL     1      -0.806  -0.895  -3.529  1.00  0.00     0.037 A   
ATOM     13  C5  UNL     1      -1.650  -1.933  -3.948  1.00  0.00     0.118 A   
ATOM     14  C1  UNL     1       2.591  -2.654  -3.695  1.00  0.00     0.044 C   
BRANCH  13  15
ATOM     15  N1  UNL     1      -3.100  -1.713  -3.987  1.00  0.00     0.092 N   
ATOM     16  O1  UNL     1      -3.800  -2.565  -4.548  1.00  0.00    -0.138 OA  
ATOM     17  O2  UNL     1      -3.534  -0.682  -3.449  1.00  0.00    -0.138 OA  
ENDBRANCH  13  15
ENDBRANCH   7   8
ENDBRANCH   1   7
BRANCH   3  18
ATOM     18  C11 UNL     1       0.251   1.692   1.632  1.00  0.00     0.117 C   
BRANCH  18  19
ATOM     19  N3  UNL     1       0.265   0.712   2.781  1.00  0.00     0.249 N   
ATOM     20  H11 UNL     1       0.583   1.157   3.646  1.00  0.00     0.199 HD  
ATOM     21  H12 UNL     1       0.993   0.015   2.548  1.00  0.00     0.199 HD  
BRANCH  19  22
ATOM     22  C12 UNL     1      -1.008  -0.015   3.042  1.00  0.00     0.164 C   
BRANCH  22  23
ATOM     23  C13 UNL     1      -1.409  -0.951   1.937  1.00  0.00    -0.002 A   
ATOM     24  C14 UNL     1      -2.476  -0.624   1.067  1.00  0.00     0.012 A   
ATOM     25  C18 UNL     1      -0.708  -2.155   1.746  1.00  0.00     0.045 A   
ATOM     26  C15 UNL     1      -2.839  -1.478   0.020  1.00  0.00     0.037 A   
ATOM     27  C17 UNL     1      -1.095  -2.977   0.709  1.00  0.00     0.109 A   
ATOM     28  C16 UNL     1      -2.128  -2.648  -0.133  1.00  0.00     0.108 A   
ATOM     29  O3  UNL     1      -0.533  -4.174   0.400  1.00  0.00    -0.316 OA  
ATOM     30  O4  UNL     1      -2.342  -3.594  -1.083  1.00  0.00    -0.316 OA  
ATOM     31  C19 UNL     1      -1.359  -4.585  -0.711  1.00  0.00     0.337 C   
ENDBRANCH  22  23
ENDBRANCH  19  22
ENDBRANCH  18  19
BRANCH  18  32
ATOM     32  C20 UNL     1       1.018   2.977   2.004  1.00  0.00     0.043 C   
ATOM     33  C21 UNL     1       0.359   3.805   3.112  1.00  0.00     0.010 C   
ATOM     34  C24 UNL     1       2.474   2.790   2.472  1.00  0.00     0.010 C   
ATOM     35  C22 UNL     1       1.482   4.724   3.563  1.00  0.00     0.001 C   
ATOM     36  C23 UNL     1       2.696   3.808   3.592  1.00  0.00     0.001 C   
ENDBRANCH  18  32
ENDBRANCH   3  18
TORSDOF 8
