REMARK SMILES CC(C)[C@H]([NH2+]Cc1ccc2c(c1)OCO2)c1cn(CCc2cccc3cn[nH]c23)nn1
REMARK SMILES IDX 16 1 17 2 18 3 30 4 31 5 4 7 2 8 1 9 3 10 5 11 6 14 7 15
REMARK SMILES IDX 8 16 12 17 9 18 11 19 10 20 13 21 15 22 14 23 19 24 20 25
REMARK SMILES IDX 21 26 22 27 29 28 23 29 25 30 28 31 24 32 26 33 27 34
REMARK H PARENT 17 6 5 12 5 13 28 35
ROOT
ATOM     1   C13 UNL     1      -0.902   0.831  -0.853  1.00  0.00     0.127 A   
ATOM     2   C14 UNL     1       0.036   1.803  -1.136  1.00  0.00     0.045 A   
ATOM     3   N2  UNL     1      -0.607   2.979  -0.857  1.00  0.00    -0.212 N   
ATOM     4   N5  UNL     1      -1.884   2.750  -0.492  1.00  0.00    -0.076 NA  
ATOM     5   N6  UNL     1      -2.072   1.440  -0.469  1.00  0.00    -0.132 NA  
ATOM     6   H18 UNL     1       1.078   1.769  -1.420  1.00  0.00     0.083 HD  
ENDROOT
BRANCH   1   7
ATOM     7   C4  UNL     1      -0.763  -0.659  -0.747  1.00  0.00     0.117 C   
BRANCH   7   8
ATOM     8   C2  UNL     1      -1.543  -1.454  -1.826  1.00  0.00     0.037 C   
ATOM     9   C1  UNL     1      -3.068  -1.321  -1.756  1.00  0.00     0.014 C   
ATOM     10  C3  UNL     1      -1.063  -1.091  -3.238  1.00  0.00     0.014 C   
ENDBRANCH   7   8
BRANCH   7  11
ATOM     11  N1  UNL     1      -1.179  -1.065   0.644  1.00  0.00     0.249 N   
ATOM     12  H9  UNL     1      -0.719  -0.430   1.331  1.00  0.00     0.199 HD  
ATOM     13  H10 UNL     1      -2.166  -0.807   0.773  1.00  0.00     0.199 HD  
BRANCH  11  14
ATOM     14  C5  UNL     1      -0.960  -2.459   1.099  1.00  0.00     0.164 C   
BRANCH  14  15
ATOM     15  C6  UNL     1       0.446  -2.981   0.947  1.00  0.00    -0.002 A   
ATOM     16  C7  UNL     1       1.570  -2.219   1.347  1.00  0.00     0.012 A   
ATOM     17  C11 UNL     1       0.650  -4.280   0.445  1.00  0.00     0.045 A   
ATOM     18  C8  UNL     1       2.872  -2.721   1.230  1.00  0.00     0.037 A   
ATOM     19  C10 UNL     1       1.944  -4.751   0.351  1.00  0.00     0.109 A   
ATOM     20  C9  UNL     1       3.024  -3.993   0.729  1.00  0.00     0.108 A   
ATOM     21  O1  UNL     1       2.306  -5.982  -0.094  1.00  0.00    -0.316 OA  
ATOM     22  O2  UNL     1       4.204  -4.644   0.558  1.00  0.00    -0.316 OA  
ATOM     23  C12 UNL     1       3.742  -5.924   0.076  1.00  0.00     0.337 C   
ENDBRANCH  14  15
ENDBRANCH  11  14
ENDBRANCH   7  11
ENDBRANCH   1   7
BRANCH   3  24
ATOM     24  C15 UNL     1      -0.029   4.300  -0.697  1.00  0.00     0.139 C   
BRANCH  24  25
ATOM     25  C16 UNL     1      -0.124   4.833   0.742  1.00  0.00     0.059 C   
BRANCH  25  26
ATOM     26  C17 UNL     1       0.736   4.073   1.731  1.00  0.00    -0.023 A   
ATOM     27  C18 UNL     1       1.981   4.592   2.139  1.00  0.00     0.006 A   
ATOM     28  C23 UNL     1       0.391   2.829   2.293  1.00  0.00     0.059 A   
ATOM     29  C19 UNL     1       2.809   3.914   3.037  1.00  0.00     0.001 A   
ATOM     30  C21 UNL     1       1.216   2.114   3.152  1.00  0.00     0.017 A   
ATOM     31  N4  UNL     1      -0.744   2.061   2.184  1.00  0.00    -0.238 N   
ATOM     32  C20 UNL     1       2.443   2.667   3.551  1.00  0.00     0.012 A   
ATOM     33  C22 UNL     1       0.527   0.901   3.385  1.00  0.00     0.141 A   
ATOM     34  N3  UNL     1      -0.593   0.793   2.653  1.00  0.00    -0.192 NA  
ATOM     35  H27 UNL     1      -1.591   2.302   1.666  1.00  0.00     0.176 HD  
ENDBRANCH  25  26
ENDBRANCH  24  25
ENDBRANCH   3  24
TORSDOF 8
