REMARK SMILES Cc1ccc([C@H](CO)n2cc([C@H](CC(C)C)[NH2+]Cc3ccc4c(c3)OCO4)nn2)cc1
REMARK SMILES IDX 9 1 10 2 11 3 28 4 29 5 6 7 5 8 2 9 3 10 31 11 4 12 30 13
REMARK SMILES IDX 1 14 7 15 8 16 12 18 13 19 14 20 15 21 16 22 17 23 18 26
REMARK SMILES IDX 19 27 20 28 24 29 21 30 23 31 22 32 25 33 27 34 26 35
REMARK H PARENT 10 6 8 17 17 24 17 25
ROOT
ATOM     1   N1  UNL     1       0.388   1.332  -1.758  1.00  0.00    -0.202 N   
ATOM     2   C8  UNL     1       0.533   0.007  -1.438  1.00  0.00     0.046 A   
ATOM     3   C9  UNL     1      -0.758  -0.449  -1.302  1.00  0.00     0.127 A   
ATOM     4   N3  UNL     1      -1.629   0.582  -1.537  1.00  0.00    -0.132 NA  
ATOM     5   N4  UNL     1      -0.921   1.668  -1.796  1.00  0.00    -0.075 NA  
ATOM     6   H10 UNL     1       1.504  -0.458  -1.331  1.00  0.00     0.083 HD  
ENDROOT
BRANCH   1   7
ATOM     7   C6  UNL     1       1.449   2.321  -1.956  1.00  0.00     0.155 C   
BRANCH   7   8
ATOM     8   C5  UNL     1       1.662   3.114  -0.676  1.00  0.00    -0.023 A   
ATOM     9   C2  UNL     1       2.080   4.538   1.728  1.00  0.00    -0.051 A   
ATOM     10  C3  UNL     1       3.012   3.591   1.294  1.00  0.00     0.004 A   
ATOM     11  C24 UNL     1       0.948   4.784   0.946  1.00  0.00     0.004 A   
ATOM     12  C4  UNL     1       2.803   2.881   0.109  1.00  0.00     0.006 A   
ATOM     13  C23 UNL     1       0.737   4.077  -0.241  1.00  0.00     0.006 A   
ATOM     14  C1  UNL     1       2.325   5.331   2.979  1.00  0.00     0.044 C   
ENDBRANCH   7   8
BRANCH   7  15
ATOM     15  C7  UNL     1       1.214   3.200  -3.197  1.00  0.00     0.185 C   
BRANCH  15  16
ATOM     16  O1  UNL     1       1.430   2.433  -4.386  1.00  0.00    -0.394 OA  
ATOM     17  H9  UNL     1       1.262   3.026  -5.141  1.00  0.00     0.210 HD  
ENDBRANCH  15  16
ENDBRANCH   7  15
ENDBRANCH   1   7
BRANCH   3  18
ATOM     18  C10 UNL     1      -1.287  -1.786  -0.904  1.00  0.00     0.114 C   
BRANCH  18  19
ATOM     19  C11 UNL     1      -1.640  -2.625  -2.151  1.00  0.00     0.064 C   
BRANCH  19  20
ATOM     20  C12 UNL     1      -2.143  -4.061  -1.892  1.00  0.00    -0.012 C   
ATOM     21  C13 UNL     1      -2.401  -4.762  -3.230  1.00  0.00     0.007 C   
ATOM     22  C14 UNL     1      -1.164  -4.889  -1.058  1.00  0.00     0.007 C   
ENDBRANCH  19  20
ENDBRANCH  18  19
BRANCH  18  23
ATOM     23  N2  UNL     1      -2.522  -1.635  -0.046  1.00  0.00     0.249 N   
ATOM     24  H21 UNL     1      -2.961  -2.544   0.114  1.00  0.00     0.199 HD  
ATOM     25  H22 UNL     1      -3.181  -1.061  -0.588  1.00  0.00     0.199 HD  
BRANCH  23  26
ATOM     26  C15 UNL     1      -2.333  -0.960   1.275  1.00  0.00     0.164 C   
BRANCH  26  27
ATOM     27  C16 UNL     1      -1.426  -1.723   2.200  1.00  0.00    -0.002 A   
ATOM     28  C17 UNL     1      -1.875  -2.909   2.829  1.00  0.00     0.012 A   
ATOM     29  C21 UNL     1      -0.107  -1.283   2.411  1.00  0.00     0.045 A   
ATOM     30  C18 UNL     1      -1.021  -3.652   3.651  1.00  0.00     0.037 A   
ATOM     31  C20 UNL     1       0.709  -2.041   3.224  1.00  0.00     0.109 A   
ATOM     32  C19 UNL     1       0.266  -3.192   3.826  1.00  0.00     0.108 A   
ATOM     33  O2  UNL     1       2.007  -1.767   3.518  1.00  0.00    -0.316 OA  
ATOM     34  O3  UNL     1       1.227  -3.786   4.580  1.00  0.00    -0.316 OA  
ATOM     35  C22 UNL     1       2.323  -2.861   4.410  1.00  0.00     0.337 C   
ENDBRANCH  26  27
ENDBRANCH  23  26
ENDBRANCH  18  23
ENDBRANCH   3  18
TORSDOF 10
