REMARK SMILES Cc1ccc([C@@H](CO)n2cc([C@H](CC(C)C)[NH2+]Cc3ccc4c(c3)OCO4)nn2)cc1
REMARK SMILES IDX 9 1 10 2 11 3 28 4 29 5 6 7 5 8 2 9 3 10 31 11 4 12 30 13
REMARK SMILES IDX 1 14 7 15 8 16 12 18 13 19 14 20 15 21 16 22 17 23 18 26
REMARK SMILES IDX 19 27 20 28 24 29 21 30 23 31 22 32 25 33 27 34 26 35
REMARK H PARENT 10 6 8 17 17 24 17 25
ROOT
ATOM     1   N1  UNL     1       0.032  -1.223  -2.854  1.00  0.00    -0.202 N   
ATOM     2   C8  UNL     1      -0.930  -0.775  -1.986  1.00  0.00     0.046 A   
ATOM     3   C9  UNL     1      -0.397   0.378  -1.458  1.00  0.00     0.127 A   
ATOM     4   N3  UNL     1       0.851   0.586  -1.993  1.00  0.00    -0.132 NA  
ATOM     5   N4  UNL     1       1.110  -0.408  -2.829  1.00  0.00    -0.075 NA  
ATOM     6   H10 UNL     1      -1.872  -1.291  -1.858  1.00  0.00     0.083 HD  
ENDROOT
BRANCH   1   7
ATOM     7   C6  UNL     1       0.009  -2.393  -3.733  1.00  0.00     0.155 C   
BRANCH   7   8
ATOM     8   C5  UNL     1      -0.371  -3.646  -2.951  1.00  0.00    -0.023 A   
ATOM     9   C2  UNL     1      -0.993  -5.947  -1.424  1.00  0.00    -0.051 A   
ATOM     10  C3  UNL     1       0.294  -5.399  -1.386  1.00  0.00     0.004 A   
ATOM     11  C24 UNL     1      -1.958  -5.353  -2.243  1.00  0.00     0.004 A   
ATOM     12  C4  UNL     1       0.599  -4.259  -2.135  1.00  0.00     0.006 A   
ATOM     13  C23 UNL     1      -1.654  -4.211  -2.992  1.00  0.00     0.006 A   
ATOM     14  C1  UNL     1      -1.312  -7.193  -0.652  1.00  0.00     0.044 C   
ENDBRANCH   7   8
BRANCH   7  15
ATOM     15  C7  UNL     1      -0.781  -2.097  -5.025  1.00  0.00     0.185 C   
BRANCH  15  16
ATOM     16  O1  UNL     1      -2.120  -1.666  -4.778  1.00  0.00    -0.394 OA  
ATOM     17  H9  UNL     1      -2.535  -1.514  -5.648  1.00  0.00     0.210 HD  
ENDBRANCH  15  16
ENDBRANCH   7  15
ENDBRANCH   1   7
BRANCH   3  18
ATOM     18  C10 UNL     1      -0.954   1.348  -0.465  1.00  0.00     0.114 C   
BRANCH  18  19
ATOM     19  C11 UNL     1      -1.914   2.340  -1.154  1.00  0.00     0.064 C   
BRANCH  19  20
ATOM     20  C12 UNL     1      -2.624   3.361  -0.240  1.00  0.00    -0.012 C   
ATOM     21  C13 UNL     1      -3.568   4.229  -1.079  1.00  0.00     0.007 C   
ATOM     22  C14 UNL     1      -3.405   2.691   0.890  1.00  0.00     0.007 C   
ENDBRANCH  19  20
ENDBRANCH  18  19
BRANCH  18  23
ATOM     23  N2  UNL     1       0.158   2.114   0.195  1.00  0.00     0.249 N   
ATOM     24  H21 UNL     1       0.805   2.402  -0.555  1.00  0.00     0.199 HD  
ATOM     25  H22 UNL     1      -0.173   2.976   0.636  1.00  0.00     0.199 HD  
BRANCH  23  26
ATOM     26  C15 UNL     1       0.953   1.347   1.194  1.00  0.00     0.164 C   
BRANCH  26  27
ATOM     27  C16 UNL     1       2.056   2.208   1.745  1.00  0.00    -0.002 A   
ATOM     28  C17 UNL     1       3.314   2.252   1.098  1.00  0.00     0.012 A   
ATOM     29  C21 UNL     1       1.824   3.021   2.868  1.00  0.00     0.045 A   
ATOM     30  C18 UNL     1       4.333   3.089   1.566  1.00  0.00     0.037 A   
ATOM     31  C20 UNL     1       2.850   3.835   3.302  1.00  0.00     0.109 A   
ATOM     32  C19 UNL     1       4.069   3.869   2.670  1.00  0.00     0.108 A   
ATOM     33  O2  UNL     1       2.792   4.684   4.362  1.00  0.00    -0.316 OA  
ATOM     34  O3  UNL     1       4.931   4.743   3.251  1.00  0.00    -0.316 OA  
ATOM     35  C22 UNL     1       4.128   5.238   4.345  1.00  0.00     0.337 C   
ENDBRANCH  26  27
ENDBRANCH  23  26
ENDBRANCH  18  23
ENDBRANCH   3  18
TORSDOF 10
