REMARK SMILES Cc1ccc([C@@H](O)Cn2cc([C@@H]([NH2+]Cc3ccc4c(c3)OCO4)C(C)(C)C)nn2)cc1F
REMARK SMILES IDX 9 1 10 2 11 3 28 4 29 5 8 7 6 8 5 9 2 10 3 11 31 12 4 13
REMARK SMILES IDX 30 14 1 15 32 16 7 17 12 19 13 20 14 23 15 24 16 25 20 26
REMARK SMILES IDX 17 27 19 28 18 29 21 30 23 31 22 32 24 33 25 34 26 35 27 36
REMARK H PARENT 10 6 7 18 13 21 13 22
ROOT
ATOM     1   N1  UNL     1      -2.097  -1.653  -1.912  1.00  0.00    -0.209 N   
ATOM     2   C8  UNL     1      -1.070  -1.137  -2.653  1.00  0.00     0.046 A   
ATOM     3   C9  UNL     1       0.009  -1.179  -1.797  1.00  0.00     0.127 A   
ATOM     4   N3  UNL     1      -0.382  -1.742  -0.609  1.00  0.00    -0.132 NA  
ATOM     5   N4  UNL     1      -1.667  -2.037  -0.696  1.00  0.00    -0.076 NA  
ATOM     6   H10 UNL     1      -1.218  -0.755  -3.654  1.00  0.00     0.083 HD  
ENDROOT
BRANCH   1   7
ATOM     7   C7  UNL     1      -3.501  -1.754  -2.258  1.00  0.00     0.170 C   
BRANCH   7   8
ATOM     8   C6  UNL     1      -4.232  -0.401  -2.286  1.00  0.00     0.164 C   
BRANCH   8   9
ATOM     9   C5  UNL     1      -4.008   0.453  -1.053  1.00  0.00    -0.015 A   
ATOM     10  C2  UNL     1      -3.506   1.946   1.300  1.00  0.00    -0.015 A   
ATOM     11  C3  UNL     1      -4.482   0.942   1.286  1.00  0.00     0.007 A   
ATOM     12  C24 UNL     1      -2.783   2.181   0.133  1.00  0.00     0.126 A   
ATOM     13  C4  UNL     1      -4.730   0.203   0.123  1.00  0.00     0.007 A   
ATOM     14  C23 UNL     1      -3.033   1.462  -1.033  1.00  0.00     0.046 A   
ATOM     15  C1  UNL     1      -3.203   2.704   2.557  1.00  0.00     0.047 C   
ATOM     16  F1  UNL     1      -1.794   3.086   0.121  1.00  0.00    -0.207 F   
ENDBRANCH   8   9
BRANCH   8  17
ATOM     17  O1  UNL     1      -3.861   0.321  -3.467  1.00  0.00    -0.387 OA  
ATOM     18  H7  UNL     1      -4.442   1.105  -3.505  1.00  0.00     0.211 HD  
ENDBRANCH   8  17
ENDBRANCH   7   8
ENDBRANCH   1   7
BRANCH   3  19
ATOM     19  C10 UNL     1       1.397  -0.628  -1.921  1.00  0.00     0.120 C   
BRANCH  19  20
ATOM     20  N2  UNL     1       1.775  -0.004  -0.596  1.00  0.00     0.250 N   
ATOM     21  H12 UNL     1       2.784   0.118  -0.487  1.00  0.00     0.199 HD  
ATOM     22  H13 UNL     1       1.486  -0.675   0.133  1.00  0.00     0.199 HD  
BRANCH  20  23
ATOM     23  C11 UNL     1       1.096   1.286  -0.287  1.00  0.00     0.164 C   
BRANCH  23  24
ATOM     24  C12 UNL     1       1.431   1.739   1.105  1.00  0.00    -0.002 A   
ATOM     25  C13 UNL     1       2.548   2.576   1.339  1.00  0.00     0.012 A   
ATOM     26  C17 UNL     1       0.659   1.290   2.191  1.00  0.00     0.045 A   
ATOM     27  C14 UNL     1       2.886   2.973   2.637  1.00  0.00     0.037 A   
ATOM     28  C16 UNL     1       1.018   1.701   3.457  1.00  0.00     0.109 A   
ATOM     29  C15 UNL     1       2.101   2.518   3.674  1.00  0.00     0.108 A   
ATOM     30  O2  UNL     1       0.379   1.367   4.610  1.00  0.00    -0.316 OA  
ATOM     31  O3  UNL     1       2.281   2.801   4.991  1.00  0.00    -0.316 OA  
ATOM     32  C18 UNL     1       1.177   2.082   5.582  1.00  0.00     0.337 C   
ENDBRANCH  23  24
ENDBRANCH  20  23
ENDBRANCH  19  20
BRANCH  19  33
ATOM     33  C19 UNL     1       2.472  -1.679  -2.361  1.00  0.00     0.010 C   
ATOM     34  C20 UNL     1       2.057  -2.335  -3.697  1.00  0.00     0.017 C   
ATOM     35  C21 UNL     1       2.682  -2.793  -1.317  1.00  0.00     0.017 C   
ATOM     36  C22 UNL     1       3.831  -0.982  -2.604  1.00  0.00     0.017 C   
ENDBRANCH  19  33
ENDBRANCH   3  19
TORSDOF 9
