REMARK SMILES Cc1ccc([C@H](O)Cn2cc([C@@H]([NH2+]Cc3ccc4c(c3)OCO4)C(C)(C)C)nn2)cc1F
REMARK SMILES IDX 9 1 10 2 11 3 28 4 29 5 8 7 6 8 5 9 2 10 3 11 31 12 4 13
REMARK SMILES IDX 30 14 1 15 32 16 7 17 12 19 13 20 14 23 15 24 16 25 20 26
REMARK SMILES IDX 17 27 19 28 18 29 21 30 23 31 22 32 24 33 25 34 26 35 27 36
REMARK H PARENT 10 6 7 18 13 21 13 22
ROOT
ATOM     1   N1  UNL     1      -0.842  -0.964   2.222  1.00  0.00    -0.209 N   
ATOM     2   C8  UNL     1      -1.362  -0.030   1.370  1.00  0.00     0.046 A   
ATOM     3   C9  UNL     1      -0.296   0.318   0.570  1.00  0.00     0.127 A   
ATOM     4   N3  UNL     1       0.824  -0.347   1.005  1.00  0.00    -0.132 NA  
ATOM     5   N4  UNL     1       0.479  -1.115   2.024  1.00  0.00    -0.076 NA  
ATOM     6   H10 UNL     1      -2.407   0.249   1.383  1.00  0.00     0.083 HD  
ENDROOT
BRANCH   1   7
ATOM     7   C7  UNL     1      -1.541  -1.771   3.196  1.00  0.00     0.170 C   
BRANCH   7   8
ATOM     8   C6  UNL     1      -1.680  -3.236   2.763  1.00  0.00     0.164 C   
BRANCH   8   9
ATOM     9   C5  UNL     1      -2.397  -3.402   1.438  1.00  0.00    -0.015 A   
ATOM     10  C2  UNL     1      -3.695  -3.636  -1.062  1.00  0.00    -0.015 A   
ATOM     11  C3  UNL     1      -2.346  -3.985  -0.927  1.00  0.00     0.007 A   
ATOM     12  C24 UNL     1      -4.386  -3.195   0.068  1.00  0.00     0.126 A   
ATOM     13  C4  UNL     1      -1.701  -3.861   0.309  1.00  0.00     0.007 A   
ATOM     14  C23 UNL     1      -3.755  -3.077   1.304  1.00  0.00     0.046 A   
ATOM     15  C1  UNL     1      -4.405  -3.793  -2.371  1.00  0.00     0.047 C   
ATOM     16  F1  UNL     1      -5.681  -2.864  -0.027  1.00  0.00    -0.207 F   
ENDBRANCH   8   9
BRANCH   8  17
ATOM     17  O1  UNL     1      -2.404  -3.942   3.773  1.00  0.00    -0.387 OA  
ATOM     18  H7  UNL     1      -2.640  -4.814   3.409  1.00  0.00     0.211 HD  
ENDBRANCH   8  17
ENDBRANCH   7   8
ENDBRANCH   1   7
BRANCH   3  19
ATOM     19  C10 UNL     1      -0.182   1.275  -0.580  1.00  0.00     0.120 C   
BRANCH  19  20
ATOM     20  N2  UNL     1       1.215   1.852  -0.581  1.00  0.00     0.250 N   
ATOM     21  H12 UNL     1       1.497   2.216  -1.494  1.00  0.00     0.199 HD  
ATOM     22  H13 UNL     1       1.853   1.067  -0.377  1.00  0.00     0.199 HD  
BRANCH  20  23
ATOM     23  C11 UNL     1       1.468   2.898   0.448  1.00  0.00     0.164 C   
BRANCH  23  24
ATOM     24  C12 UNL     1       2.919   3.284   0.461  1.00  0.00    -0.002 A   
ATOM     25  C13 UNL     1       3.389   4.346  -0.349  1.00  0.00     0.012 A   
ATOM     26  C17 UNL     1       3.830   2.552   1.244  1.00  0.00     0.045 A   
ATOM     27  C14 UNL     1       4.747   4.684  -0.369  1.00  0.00     0.037 A   
ATOM     28  C16 UNL     1       5.160   2.913   1.201  1.00  0.00     0.109 A   
ATOM     29  C15 UNL     1       5.606   3.949   0.417  1.00  0.00     0.108 A   
ATOM     30  O2  UNL     1       6.164   2.316   1.896  1.00  0.00    -0.316 OA  
ATOM     31  O3  UNL     1       6.948   4.135   0.520  1.00  0.00    -0.316 OA  
ATOM     32  C18 UNL     1       7.295   3.115   1.482  1.00  0.00     0.337 C   
ENDBRANCH  23  24
ENDBRANCH  20  23
ENDBRANCH  19  20
BRANCH  19  33
ATOM     33  C19 UNL     1      -0.513   0.638  -1.976  1.00  0.00     0.010 C   
ATOM     34  C20 UNL     1      -1.944   0.052  -1.970  1.00  0.00     0.017 C   
ATOM     35  C21 UNL     1       0.468  -0.487  -2.362  1.00  0.00     0.017 C   
ATOM     36  C22 UNL     1      -0.477   1.715  -3.086  1.00  0.00     0.017 C   
ENDBRANCH  19  33
ENDBRANCH   3  19
TORSDOF 9
