REMARK SMILES CC(C)C[C@H]([NH2+]Cc1ccc2c(c1)OCO2)c1cn(CCc2c[nH]nc2C(C)(C)C)nn1
REMARK SMILES IDX 17 1 18 2 19 3 31 4 32 5 5 7 4 8 2 9 1 10 3 11 6 12 7 15
REMARK SMILES IDX 8 16 9 17 13 18 10 19 12 20 11 21 14 22 16 23 15 24 20 25
REMARK SMILES IDX 21 26 22 27 23 28 26 29 24 30 25 31 27 33 28 34 29 35 30 36
REMARK H PARENT 18 6 6 13 6 14 24 32
ROOT
ATOM     1   C14 UNL     1      -1.247   0.907   1.804  1.00  0.00     0.127 A   
ATOM     2   C15 UNL     1      -0.267   1.175   2.731  1.00  0.00     0.045 A   
ATOM     3   N2  UNL     1      -0.187   0.023   3.463  1.00  0.00    -0.212 N   
ATOM     4   N5  UNL     1      -1.139  -0.849   3.092  1.00  0.00    -0.076 NA  
ATOM     5   N6  UNL     1      -1.776  -0.333   2.055  1.00  0.00    -0.132 NA  
ATOM     6   H20 UNL     1       0.424   1.997   2.863  1.00  0.00     0.083 HD  
ENDROOT
BRANCH   1   7
ATOM     7   C5  UNL     1      -1.675   1.648   0.578  1.00  0.00     0.114 C   
BRANCH   7   8
ATOM     8   C4  UNL     1      -3.175   1.997   0.635  1.00  0.00     0.064 C   
BRANCH   8   9
ATOM     9   C2  UNL     1      -3.583   3.270  -0.137  1.00  0.00    -0.012 C   
ATOM     10  C1  UNL     1      -3.410   3.153  -1.650  1.00  0.00     0.007 C   
ATOM     11  C3  UNL     1      -5.044   3.607   0.184  1.00  0.00     0.007 C   
ENDBRANCH   8   9
ENDBRANCH   7   8
BRANCH   7  12
ATOM     12  N1  UNL     1      -1.407   0.757  -0.611  1.00  0.00     0.249 N   
ATOM     13  H11 UNL     1      -1.995   1.005  -1.413  1.00  0.00     0.199 HD  
ATOM     14  H12 UNL     1      -1.699  -0.189  -0.324  1.00  0.00     0.199 HD  
BRANCH  12  15
ATOM     15  C6  UNL     1       0.021   0.678  -1.048  1.00  0.00     0.164 C   
BRANCH  15  16
ATOM     16  C7  UNL     1       0.314   1.654  -2.154  1.00  0.00    -0.002 A   
ATOM     17  C8  UNL     1       0.826   2.942  -1.861  1.00  0.00     0.012 A   
ATOM     18  C12 UNL     1       0.035   1.308  -3.487  1.00  0.00     0.045 A   
ATOM     19  C9  UNL     1       1.067   3.869  -2.882  1.00  0.00     0.037 A   
ATOM     20  C11 UNL     1       0.298   2.240  -4.470  1.00  0.00     0.109 A   
ATOM     21  C10 UNL     1       0.801   3.484  -4.178  1.00  0.00     0.108 A   
ATOM     22  O1  UNL     1       0.114   2.055  -5.804  1.00  0.00    -0.316 OA  
ATOM     23  O2  UNL     1       0.995   4.241  -5.290  1.00  0.00    -0.316 OA  
ATOM     24  C13 UNL     1       0.587   3.319  -6.325  1.00  0.00     0.337 C   
ENDBRANCH  15  16
ENDBRANCH  12  15
ENDBRANCH   7  12
ENDBRANCH   1   7
BRANCH   3  25
ATOM     25  C16 UNL     1       0.859  -0.372   4.385  1.00  0.00     0.139 C   
BRANCH  25  26
ATOM     26  C17 UNL     1       1.845  -1.373   3.764  1.00  0.00     0.060 C   
BRANCH  26  27
ATOM     27  C18 UNL     1       2.463  -0.885   2.488  1.00  0.00    -0.007 A   
ATOM     28  C19 UNL     1       3.222   0.262   2.350  1.00  0.00     0.097 A   
ATOM     29  C20 UNL     1       2.447  -1.458   1.171  1.00  0.00     0.068 A   
ATOM     30  N3  UNL     1       3.572   0.338   1.040  1.00  0.00    -0.245 N   
ATOM     31  N4  UNL     1       2.983  -0.599   0.288  1.00  0.00    -0.189 NA  
ATOM     32  H26 UNL     1       4.178   1.015   0.586  1.00  0.00     0.175 HD  
BRANCH  29  33
ATOM     33  C21 UNL     1       1.946  -2.824   0.687  1.00  0.00     0.006 C   
ATOM     34  C22 UNL     1       2.665  -3.956   1.450  1.00  0.00     0.017 C   
ATOM     35  C23 UNL     1       0.425  -2.966   0.868  1.00  0.00     0.017 C   
ATOM     36  C24 UNL     1       2.245  -3.039  -0.819  1.00  0.00     0.017 C   
ENDBRANCH  29  33
ENDBRANCH  26  27
ENDBRANCH  25  26
ENDBRANCH   3  25
TORSDOF 10
