REMARK SMILES Cc1nn(C(C)C)c(C)c1Cn1cc([C@@H]([NH2+]Cc2ccc3c(c2)OCO3)C2CCCC2)nn1
REMARK SMILES IDX 12 1 13 2 14 3 32 4 33 5 11 7 10 8 2 9 3 10 4 11 8 12 1 13
REMARK SMILES IDX 9 14 5 15 6 16 7 17 15 18 16 19 17 22 18 23 19 24 23 25
REMARK SMILES IDX 20 26 22 27 21 28 24 29 26 30 25 31 27 32 28 33 31 34 29 35
REMARK SMILES IDX 30 36
REMARK H PARENT 13 6 16 20 16 21
ROOT
ATOM     1   N3  UNL     1      -1.909  -1.118  -0.235  1.00  0.00    -0.208 N   
ATOM     2   C10 UNL     1      -0.927  -1.664   0.550  1.00  0.00     0.046 A   
ATOM     3   C11 UNL     1      -0.690  -0.699   1.502  1.00  0.00     0.127 A   
ATOM     4   N5  UNL     1      -1.532   0.361   1.290  1.00  0.00    -0.132 NA  
ATOM     5   N6  UNL     1      -2.276   0.091   0.230  1.00  0.00    -0.076 NA  
ATOM     6   H16 UNL     1      -0.484  -2.625   0.331  1.00  0.00     0.083 HD  
ENDROOT
BRANCH   1   7
ATOM     7   C9  UNL     1      -2.469  -1.641  -1.474  1.00  0.00     0.173 C   
BRANCH   7   8
ATOM     8   C8  UNL     1      -1.427  -1.647  -2.542  1.00  0.00     0.013 A   
ATOM     9   C2  UNL     1      -0.816  -0.508  -3.139  1.00  0.00     0.062 A   
ATOM     10  N1  UNL     1       0.128  -0.858  -4.013  1.00  0.00    -0.186 NA  
ATOM     11  N2  UNL     1       0.055  -2.199  -4.082  1.00  0.00    -0.227 N   
ATOM     12  C6  UNL     1      -0.836  -2.732  -3.177  1.00  0.00     0.032 A   
ATOM     13  C1  UNL     1      -1.081   0.932  -2.882  1.00  0.00     0.069 C   
ATOM     14  C7  UNL     1      -1.056  -4.194  -3.024  1.00  0.00     0.064 C   
BRANCH  11  15
ATOM     15  C3  UNL     1       0.897  -2.906  -5.047  1.00  0.00     0.092 C   
ATOM     16  C4  UNL     1       0.653  -2.416  -6.475  1.00  0.00     0.030 C   
ATOM     17  C5  UNL     1       2.374  -2.803  -4.667  1.00  0.00     0.030 C   
ENDBRANCH  11  15
ENDBRANCH   7   8
ENDBRANCH   1   7
BRANCH   3  18
ATOM     18  C12 UNL     1       0.336  -0.608   2.584  1.00  0.00     0.117 C   
BRANCH  18  19
ATOM     19  N4  UNL     1       0.945   0.773   2.574  1.00  0.00     0.249 N   
ATOM     20  H18 UNL     1       0.159   1.440   2.573  1.00  0.00     0.199 HD  
ATOM     21  H19 UNL     1       1.481   0.962   3.425  1.00  0.00     0.199 HD  
BRANCH  19  22
ATOM     22  C13 UNL     1       1.795   1.087   1.389  1.00  0.00     0.164 C   
BRANCH  22  23
ATOM     23  C14 UNL     1       2.298   2.501   1.458  1.00  0.00    -0.002 A   
ATOM     24  C15 UNL     1       3.618   2.776   1.885  1.00  0.00     0.012 A   
ATOM     25  C19 UNL     1       1.439   3.566   1.130  1.00  0.00     0.045 A   
ATOM     26  C16 UNL     1       4.083   4.093   1.974  1.00  0.00     0.037 A   
ATOM     27  C18 UNL     1       1.927   4.852   1.235  1.00  0.00     0.109 A   
ATOM     28  C17 UNL     1       3.212   5.109   1.644  1.00  0.00     0.108 A   
ATOM     29  O1  UNL     1       1.232   5.986   0.961  1.00  0.00    -0.316 OA  
ATOM     30  O2  UNL     1       3.491   6.437   1.674  1.00  0.00    -0.316 OA  
ATOM     31  C20 UNL     1       2.234   6.992   1.228  1.00  0.00     0.337 C   
ENDBRANCH  22  23
ENDBRANCH  19  22
ENDBRANCH  18  19
BRANCH  18  32
ATOM     32  C21 UNL     1      -0.275  -0.866   3.975  1.00  0.00     0.043 C   
ATOM     33  C22 UNL     1       0.730  -0.811   5.130  1.00  0.00     0.010 C   
ATOM     34  C25 UNL     1      -0.851  -2.278   4.131  1.00  0.00     0.010 C   
ATOM     35  C23 UNL     1       0.075  -1.591   6.269  1.00  0.00     0.001 C   
ATOM     36  C24 UNL     1      -1.030  -2.430   5.634  1.00  0.00     0.001 C   
ENDBRANCH  18  32
ENDBRANCH   3  18
TORSDOF 8
