REMARK SMILES CC(C)(C)[C@H]([NH2+]Cc1ccc2c(c1)OCO2)c1cn(-c2ccc(F)c(N([O-])[O-])c2)nn1
REMARK SMILES IDX 17 1 18 2 19 3 30 4 31 5 5 6 2 7 1 8 3 9 4 10 6 11 7 14 8 15
REMARK SMILES IDX 9 16 13 17 10 18 12 19 11 20 14 21 16 22 15 23 20 24 21 25
REMARK SMILES IDX 29 26 22 27 25 28 23 29 24 30 26 31 27 32 28 33
REMARK H PARENT 6 12 6 13
ROOT
ATOM     1   C14 UNL     1      -0.339   0.855  -0.980  1.00  0.00     0.128 A   
ATOM     2   C15 UNL     1      -0.555   0.176   0.200  1.00  0.00     0.135 A   
ATOM     3   N2  UNL     1      -0.412  -1.158  -0.126  1.00  0.00    -0.181 N   
ATOM     4   N4  UNL     1      -0.189  -1.262  -1.461  1.00  0.00    -0.071 NA  
ATOM     5   N5  UNL     1      -0.115  -0.049  -1.980  1.00  0.00    -0.131 NA  
ENDROOT
BRANCH   1   6
ATOM     6   C5  UNL     1      -0.182   2.321  -1.263  1.00  0.00     0.120 C   
BRANCH   6   7
ATOM     7   C2  UNL     1      -1.420   2.979  -1.963  1.00  0.00     0.010 C   
ATOM     8   C1  UNL     1      -1.677   2.432  -3.381  1.00  0.00     0.017 C   
ATOM     9   C3  UNL     1      -2.692   2.744  -1.115  1.00  0.00     0.017 C   
ATOM     10  C4  UNL     1      -1.221   4.510  -2.060  1.00  0.00     0.017 C   
ENDBRANCH   6   7
BRANCH   6  11
ATOM     11  N1  UNL     1       1.074   2.507  -2.099  1.00  0.00     0.250 N   
ATOM     12  H11 UNL     1       1.187   1.637  -2.642  1.00  0.00     0.199 HD  
ATOM     13  H12 UNL     1       0.952   3.246  -2.796  1.00  0.00     0.199 HD  
BRANCH  11  14
ATOM     14  C6  UNL     1       2.344   2.764  -1.352  1.00  0.00     0.164 C   
BRANCH  14  15
ATOM     15  C7  UNL     1       2.705   1.689  -0.364  1.00  0.00    -0.002 A   
ATOM     16  C8  UNL     1       3.151   0.421  -0.810  1.00  0.00     0.012 A   
ATOM     17  C12 UNL     1       2.546   1.916   1.014  1.00  0.00     0.045 A   
ATOM     18  C9  UNL     1       3.405  -0.614   0.097  1.00  0.00     0.037 A   
ATOM     19  C11 UNL     1       2.804   0.875   1.881  1.00  0.00     0.109 A   
ATOM     20  C10 UNL     1       3.216  -0.357   1.436  1.00  0.00     0.108 A   
ATOM     21  O1  UNL     1       2.666   0.919   3.232  1.00  0.00    -0.316 OA  
ATOM     22  O2  UNL     1       3.385  -1.243   2.452  1.00  0.00    -0.316 OA  
ATOM     23  C13 UNL     1       3.117  -0.405   3.598  1.00  0.00     0.337 C   
ENDBRANCH  14  15
ENDBRANCH  11  14
ENDBRANCH   6  11
ENDBRANCH   1   6
BRANCH   3  24
ATOM     24  C16 UNL     1      -0.420  -2.294   0.723  1.00  0.00     0.060 A   
ATOM     25  C17 UNL     1      -0.276  -3.578   0.166  1.00  0.00     0.029 A   
ATOM     26  C21 UNL     1      -0.540  -2.155   2.112  1.00  0.00     0.060 A   
ATOM     27  C18 UNL     1      -0.247  -4.710   0.990  1.00  0.00     0.043 A   
ATOM     28  C20 UNL     1      -0.506  -3.305   2.919  1.00  0.00     0.155 A   
ATOM     29  C19 UNL     1      -0.358  -4.572   2.369  1.00  0.00     0.151 A   
ATOM     30  F1  UNL     1      -0.286  -5.669   3.133  1.00  0.00    -0.205 F   
BRANCH  28  31
ATOM     31  N3  UNL     1      -0.602  -3.158   4.357  1.00  0.00     0.095 N   
ATOM     32  O3  UNL     1      -1.327  -3.944   4.975  1.00  0.00    -0.138 OA  
ATOM     33  O4  UNL     1       0.021  -2.209   4.857  1.00  0.00    -0.138 OA  
ENDBRANCH  28  31
ENDBRANCH   3  24
TORSDOF 7
