REMARK SMILES CC(C)(C)[C@H]([NH2+]Cc1ccc2c(c1)OCO2)c1cn(C[C@@H](O)c2ccc(F)cc2F)nn1
REMARK SMILES IDX 17 1 18 2 19 3 31 4 32 5 5 7 2 8 1 9 3 10 4 11 6 12 7 15
REMARK SMILES IDX 8 16 9 17 13 18 10 19 12 20 11 21 14 22 16 23 15 24 20 25
REMARK SMILES IDX 21 26 22 27 23 29 24 30 29 31 25 32 28 33 26 34 30 35 27 36
REMARK H PARENT 18 6 6 13 6 14 22 28
ROOT
ATOM     1   C14 UNL     1      -1.243  -1.516   0.091  1.00  0.00     0.127 A   
ATOM     2   C15 UNL     1      -1.959  -1.623   1.263  1.00  0.00     0.046 A   
ATOM     3   N2  UNL     1      -1.010  -1.500   2.239  1.00  0.00    -0.209 N   
ATOM     4   N3  UNL     1       0.214  -1.347   1.705  1.00  0.00    -0.076 NA  
ATOM     5   N4  UNL     1       0.086  -1.348   0.390  1.00  0.00    -0.132 NA  
ATOM     6   H20 UNL     1      -3.011  -1.735   1.486  1.00  0.00     0.083 HD  
ENDROOT
BRANCH   1   7
ATOM     7   C5  UNL     1      -1.680  -1.434  -1.341  1.00  0.00     0.120 C   
BRANCH   7   8
ATOM     8   C2  UNL     1      -1.614  -2.795  -2.115  1.00  0.00     0.010 C   
ATOM     9   C1  UNL     1      -2.195  -2.632  -3.539  1.00  0.00     0.017 C   
ATOM     10  C3  UNL     1      -2.480  -3.854  -1.394  1.00  0.00     0.017 C   
ATOM     11  C4  UNL     1      -0.179  -3.344  -2.239  1.00  0.00     0.017 C   
ENDBRANCH   7   8
BRANCH   7  12
ATOM     12  N1  UNL     1      -0.830  -0.390  -2.029  1.00  0.00     0.250 N   
ATOM     13  H11 UNL     1      -0.837  -0.475  -3.048  1.00  0.00     0.199 HD  
ATOM     14  H12 UNL     1       0.143  -0.570  -1.733  1.00  0.00     0.199 HD  
BRANCH  12  15
ATOM     15  C6  UNL     1      -1.142   1.021  -1.659  1.00  0.00     0.164 C   
BRANCH  15  16
ATOM     16  C7  UNL     1      -0.109   1.956  -2.220  1.00  0.00    -0.002 A   
ATOM     17  C8  UNL     1      -0.323   2.607  -3.458  1.00  0.00     0.012 A   
ATOM     18  C12 UNL     1       1.103   2.149  -1.534  1.00  0.00     0.045 A   
ATOM     19  C9  UNL     1       0.653   3.451  -4.001  1.00  0.00     0.037 A   
ATOM     20  C11 UNL     1       2.042   2.987  -2.098  1.00  0.00     0.109 A   
ATOM     21  C10 UNL     1       1.824   3.619  -3.297  1.00  0.00     0.108 A   
ATOM     22  O1  UNL     1       3.259   3.280  -1.570  1.00  0.00    -0.316 OA  
ATOM     23  O2  UNL     1       2.875   4.393  -3.674  1.00  0.00    -0.316 OA  
ATOM     24  C13 UNL     1       3.783   4.182  -2.571  1.00  0.00     0.337 C   
ENDBRANCH  15  16
ENDBRANCH  12  15
ENDBRANCH   7  12
ENDBRANCH   1   7
BRANCH   3  25
ATOM     25  C16 UNL     1      -1.201  -1.433   3.670  1.00  0.00     0.170 C   
BRANCH  25  26
ATOM     26  C17 UNL     1      -1.646  -0.043   4.141  1.00  0.00     0.167 C   
BRANCH  26  27
ATOM     27  O3  UNL     1      -2.056  -0.138   5.509  1.00  0.00    -0.387 OA  
ATOM     28  H24 UNL     1      -2.154   0.768   5.858  1.00  0.00     0.211 HD  
ENDBRANCH  26  27
BRANCH  26  29
ATOM     29  C18 UNL     1      -0.577   1.017   3.990  1.00  0.00     0.018 A   
ATOM     30  C19 UNL     1       0.458   1.157   4.929  1.00  0.00     0.012 A   
ATOM     31  C23 UNL     1      -0.580   1.861   2.869  1.00  0.00     0.131 A   
ATOM     32  C20 UNL     1       1.446   2.128   4.748  1.00  0.00     0.040 A   
ATOM     33  C22 UNL     1       0.397   2.831   2.684  1.00  0.00     0.078 A   
ATOM     34  C21 UNL     1       1.405   2.954   3.630  1.00  0.00     0.126 A   
ATOM     35  F2  UNL     1      -1.535   1.724   1.936  1.00  0.00    -0.207 F   
ATOM     36  F1  UNL     1       2.355   3.881   3.458  1.00  0.00    -0.207 F   
ENDBRANCH  26  29
ENDBRANCH  25  26
ENDBRANCH   3  25
TORSDOF 9
