REMARK SMILES CC(C)(C)[C@H]([NH2+]Cc1ccc2c(c1)OCO2)c1cn(C[C@H](O)c2ccc(F)cc2F)nn1
REMARK SMILES IDX 17 1 18 2 19 3 31 4 32 5 5 7 2 8 1 9 3 10 4 11 6 12 7 15
REMARK SMILES IDX 8 16 9 17 13 18 10 19 12 20 11 21 14 22 16 23 15 24 20 25
REMARK SMILES IDX 21 26 22 27 23 29 24 30 29 31 25 32 28 33 26 34 30 35 27 36
REMARK H PARENT 18 6 6 13 6 14 22 28
ROOT
ATOM     1   C14 UNL     1       0.832   0.997  -0.747  1.00  0.00     0.127 A   
ATOM     2   C15 UNL     1       0.586   0.113  -1.773  1.00  0.00     0.046 A   
ATOM     3   N2  UNL     1       1.720  -0.649  -1.834  1.00  0.00    -0.209 N   
ATOM     4   N3  UNL     1       2.595  -0.283  -0.878  1.00  0.00    -0.076 NA  
ATOM     5   N4  UNL     1       2.060   0.718  -0.201  1.00  0.00    -0.132 NA  
ATOM     6   H20 UNL     1      -0.243  -0.035  -2.452  1.00  0.00     0.083 HD  
ENDROOT
BRANCH   1   7
ATOM     7   C5  UNL     1       0.004   2.098  -0.155  1.00  0.00     0.120 C   
BRANCH   7   8
ATOM     8   C2  UNL     1       0.097   3.466  -0.917  1.00  0.00     0.010 C   
ATOM     9   C1  UNL     1       1.535   4.021  -0.977  1.00  0.00     0.017 C   
ATOM     10  C3  UNL     1      -0.414   3.304  -2.367  1.00  0.00     0.017 C   
ATOM     11  C4  UNL     1      -0.809   4.519  -0.238  1.00  0.00     0.017 C   
ENDBRANCH   7   8
BRANCH   7  12
ATOM     12  N1  UNL     1       0.418   2.271   1.297  1.00  0.00     0.250 N   
ATOM     13  H11 UNL     1       0.779   3.211   1.473  1.00  0.00     0.199 HD  
ATOM     14  H12 UNL     1       1.240   1.656   1.428  1.00  0.00     0.199 HD  
BRANCH  12  15
ATOM     15  C6  UNL     1      -0.595   1.919   2.326  1.00  0.00     0.164 C   
BRANCH  15  16
ATOM     16  C7  UNL     1      -0.897   0.448   2.385  1.00  0.00    -0.002 A   
ATOM     17  C8  UNL     1       0.047  -0.451   2.938  1.00  0.00     0.012 A   
ATOM     18  C12 UNL     1      -2.107  -0.051   1.873  1.00  0.00     0.045 A   
ATOM     19  C9  UNL     1      -0.210  -1.825   2.985  1.00  0.00     0.037 A   
ATOM     20  C11 UNL     1      -2.326  -1.411   1.929  1.00  0.00     0.109 A   
ATOM     21  C10 UNL     1      -1.405  -2.274   2.469  1.00  0.00     0.108 A   
ATOM     22  O1  UNL     1      -3.433  -2.052   1.473  1.00  0.00    -0.316 OA  
ATOM     23  O2  UNL     1      -1.816  -3.568   2.420  1.00  0.00    -0.316 OA  
ATOM     24  C13 UNL     1      -3.123  -3.420   1.825  1.00  0.00     0.337 C   
ENDBRANCH  15  16
ENDBRANCH  12  15
ENDBRANCH   7  12
ENDBRANCH   1   7
BRANCH   3  25
ATOM     25  C16 UNL     1       2.086  -1.625  -2.840  1.00  0.00     0.170 C   
BRANCH  25  26
ATOM     26  C17 UNL     1       1.481  -3.016  -2.617  1.00  0.00     0.167 C   
BRANCH  26  27
ATOM     27  O3  UNL     1       0.055  -2.950  -2.743  1.00  0.00    -0.387 OA  
ATOM     28  H24 UNL     1      -0.263  -3.872  -2.779  1.00  0.00     0.211 HD  
ENDBRANCH  26  27
BRANCH  26  29
ATOM     29  C18 UNL     1       1.896  -3.681  -1.323  1.00  0.00     0.018 A   
ATOM     30  C19 UNL     1       1.016  -3.864  -0.246  1.00  0.00     0.012 A   
ATOM     31  C23 UNL     1       3.216  -4.135  -1.187  1.00  0.00     0.131 A   
ATOM     32  C20 UNL     1       1.454  -4.500   0.918  1.00  0.00     0.040 A   
ATOM     33  C22 UNL     1       3.663  -4.757  -0.028  1.00  0.00     0.078 A   
ATOM     34  C21 UNL     1       2.772  -4.935   1.018  1.00  0.00     0.126 A   
ATOM     35  F2  UNL     1       4.074  -3.969  -2.204  1.00  0.00    -0.207 F   
ATOM     36  F1  UNL     1       3.183  -5.533   2.142  1.00  0.00    -0.207 F   
ENDBRANCH  26  29
ENDBRANCH  25  26
ENDBRANCH   3  25
TORSDOF 9
