REMARK SMILES O[C@H](Cn1cc([C@@H]([NH2+]Cc2ccc3c(c2)OCO3)C2CCCC2)nn1)c1ccc(F)cn1
REMARK SMILES IDX 4 1 5 2 6 3 24 4 25 5 3 7 2 8 1 9 26 11 27 12 32 13 28 14
REMARK SMILES IDX 31 15 29 16 30 17 7 18 8 19 9 22 10 23 11 24 15 25 12 26
REMARK SMILES IDX 14 27 13 28 16 29 18 30 17 31 19 32 20 33 23 34 21 35 22 36
REMARK H PARENT 5 6 1 10 8 20 8 21
ROOT
ATOM     1   N1  UNL     1      -0.562   1.464  -1.706  1.00  0.00    -0.209 N   
ATOM     2   C3  UNL     1      -0.790   0.358  -0.938  1.00  0.00     0.045 A   
ATOM     3   C4  UNL     1       0.448   0.054  -0.419  1.00  0.00     0.127 A   
ATOM     4   N3  UNL     1       1.379   0.917  -0.939  1.00  0.00    -0.132 NA  
ATOM     5   N4  UNL     1       0.751   1.761  -1.742  1.00  0.00    -0.076 NA  
ATOM     6   H5  UNL     1      -1.780  -0.058  -0.801  1.00  0.00     0.083 HD  
ENDROOT
BRANCH   1   7
ATOM     7   C2  UNL     1      -1.516   2.263  -2.448  1.00  0.00     0.172 C   
BRANCH   7   8
ATOM     8   C1  UNL     1      -2.488   3.038  -1.555  1.00  0.00     0.182 C   
BRANCH   8   9
ATOM     9   O1  UNL     1      -3.428   2.117  -0.974  1.00  0.00    -0.385 OA  
ATOM     10  H1  UNL     1      -3.475   2.365  -0.025  1.00  0.00     0.211 HD  
ENDBRANCH   8   9
BRANCH   8  11
ATOM     11  C19 UNL     1      -1.817   3.860  -0.468  1.00  0.00     0.071 A   
ATOM     12  C20 UNL     1      -1.029   4.967  -0.781  1.00  0.00     0.030 A   
ATOM     13  N5  UNL     1      -2.035   3.449   0.815  1.00  0.00    -0.255 NA  
ATOM     14  C21 UNL     1      -0.432   5.681   0.256  1.00  0.00     0.043 A   
ATOM     15  C23 UNL     1      -1.448   4.175   1.799  1.00  0.00     0.150 A   
ATOM     16  C22 UNL     1      -0.647   5.277   1.564  1.00  0.00     0.141 A   
ATOM     17  F1  UNL     1      -0.085   5.941   2.580  1.00  0.00    -0.205 F   
ENDBRANCH   8  11
ENDBRANCH   7   8
ENDBRANCH   1   7
BRANCH   3  18
ATOM     18  C5  UNL     1       0.880  -1.015   0.529  1.00  0.00     0.117 C   
BRANCH  18  19
ATOM     19  N2  UNL     1       2.228  -1.561   0.106  1.00  0.00     0.249 N   
ATOM     20  H7  UNL     1       2.619  -2.158   0.838  1.00  0.00     0.199 HD  
ATOM     21  H8  UNL     1       2.849  -0.746   0.008  1.00  0.00     0.199 HD  
BRANCH  19  22
ATOM     22  C6  UNL     1       2.263  -2.307  -1.188  1.00  0.00     0.164 C   
BRANCH  22  23
ATOM     23  C7  UNL     1       1.467  -3.582  -1.149  1.00  0.00    -0.002 A   
ATOM     24  C8  UNL     1       0.239  -3.677  -1.847  1.00  0.00     0.012 A   
ATOM     25  C12 UNL     1       1.919  -4.677  -0.393  1.00  0.00     0.045 A   
ATOM     26  C9  UNL     1      -0.533  -4.842  -1.789  1.00  0.00     0.037 A   
ATOM     27  C11 UNL     1       1.133  -5.810  -0.357  1.00  0.00     0.109 A   
ATOM     28  C10 UNL     1      -0.059  -5.890  -1.033  1.00  0.00     0.108 A   
ATOM     29  O2  UNL     1       1.419  -6.948   0.328  1.00  0.00    -0.316 OA  
ATOM     30  O3  UNL     1      -0.673  -7.089  -0.861  1.00  0.00    -0.316 OA  
ATOM     31  C13 UNL     1       0.281  -7.770  -0.018  1.00  0.00     0.337 C   
ENDBRANCH  22  23
ENDBRANCH  19  22
ENDBRANCH  18  19
BRANCH  18  32
ATOM     32  C14 UNL     1       1.008  -0.480   1.970  1.00  0.00     0.043 C   
ATOM     33  C15 UNL     1       1.427  -1.534   3.002  1.00  0.00     0.010 C   
ATOM     34  C18 UNL     1      -0.318   0.019   2.555  1.00  0.00     0.010 C   
ATOM     35  C16 UNL     1       0.963  -0.987   4.352  1.00  0.00     0.001 C   
ATOM     36  C17 UNL     1      -0.033   0.127   4.045  1.00  0.00     0.001 C   
ENDBRANCH  18  32
ENDBRANCH   3  18
TORSDOF 9
