REMARK SMILES O[C@@H](Cn1cc([C@@H]([NH2+]Cc2ccc3c(c2)OCO3)C2CCCC2)nn1)c1ccc(F)cn1
REMARK SMILES IDX 4 1 5 2 6 3 24 4 25 5 3 7 2 8 1 9 26 11 27 12 32 13 28 14
REMARK SMILES IDX 31 15 29 16 30 17 7 18 8 19 9 22 10 23 11 24 15 25 12 26
REMARK SMILES IDX 14 27 13 28 16 29 18 30 17 31 19 32 20 33 23 34 21 35 22 36
REMARK H PARENT 5 6 1 10 8 20 8 21
ROOT
ATOM     1   N1  UNL     1      -2.190   1.357   2.648  1.00  0.00    -0.209 N   
ATOM     2   C3  UNL     1      -0.944   1.773   2.271  1.00  0.00     0.045 A   
ATOM     3   C4  UNL     1      -0.820   1.318   0.978  1.00  0.00     0.127 A   
ATOM     4   N3  UNL     1      -1.980   0.678   0.613  1.00  0.00    -0.132 NA  
ATOM     5   N4  UNL     1      -2.809   0.708   1.642  1.00  0.00    -0.076 NA  
ATOM     6   H5  UNL     1      -0.284   2.305   2.944  1.00  0.00     0.083 HD  
ENDROOT
BRANCH   1   7
ATOM     7   C2  UNL     1      -2.863   1.573   3.912  1.00  0.00     0.172 C   
BRANCH   7   8
ATOM     8   C1  UNL     1      -2.368   0.650   5.026  1.00  0.00     0.182 C   
BRANCH   8   9
ATOM     9   O1  UNL     1      -1.014   0.998   5.367  1.00  0.00    -0.385 OA  
ATOM     10  H1  UNL     1      -0.536   0.139   5.421  1.00  0.00     0.211 HD  
ENDBRANCH   8   9
BRANCH   8  11
ATOM     11  C19 UNL     1      -2.466  -0.833   4.708  1.00  0.00     0.071 A   
ATOM     12  C20 UNL     1      -3.708  -1.460   4.582  1.00  0.00     0.030 A   
ATOM     13  N5  UNL     1      -1.285  -1.504   4.582  1.00  0.00    -0.255 NA  
ATOM     14  C21 UNL     1      -3.745  -2.828   4.318  1.00  0.00     0.043 A   
ATOM     15  C23 UNL     1      -1.361  -2.836   4.338  1.00  0.00     0.150 A   
ATOM     16  C22 UNL     1      -2.551  -3.524   4.199  1.00  0.00     0.141 A   
ATOM     17  F1  UNL     1      -2.554  -4.838   3.951  1.00  0.00    -0.205 F   
ENDBRANCH   8  11
ENDBRANCH   7   8
ENDBRANCH   1   7
BRANCH   3  18
ATOM     18  C5  UNL     1       0.318   1.391   0.012  1.00  0.00     0.117 C   
BRANCH  18  19
ATOM     19  N2  UNL     1       0.198   0.287  -1.002  1.00  0.00     0.249 N   
ATOM     20  H7  UNL     1       0.674   0.504  -1.881  1.00  0.00     0.199 HD  
ATOM     21  H8  UNL     1      -0.804   0.210  -1.234  1.00  0.00     0.199 HD  
BRANCH  19  22
ATOM     22  C6  UNL     1       0.632  -1.056  -0.529  1.00  0.00     0.164 C   
BRANCH  22  23
ATOM     23  C7  UNL     1       0.426  -2.078  -1.612  1.00  0.00    -0.002 A   
ATOM     24  C8  UNL     1       1.472  -2.390  -2.516  1.00  0.00     0.012 A   
ATOM     25  C12 UNL     1      -0.833  -2.680  -1.775  1.00  0.00     0.045 A   
ATOM     26  C9  UNL     1       1.274  -3.301  -3.559  1.00  0.00     0.037 A   
ATOM     27  C11 UNL     1      -0.998  -3.569  -2.817  1.00  0.00     0.109 A   
ATOM     28  C10 UNL     1       0.026  -3.872  -3.682  1.00  0.00     0.108 A   
ATOM     29  O2  UNL     1      -2.144  -4.237  -3.111  1.00  0.00    -0.316 OA  
ATOM     30  O3  UNL     1      -0.348  -4.765  -4.633  1.00  0.00    -0.316 OA  
ATOM     31  C13 UNL     1      -1.725  -5.001  -4.266  1.00  0.00     0.337 C   
ENDBRANCH  22  23
ENDBRANCH  19  22
ENDBRANCH  18  19
BRANCH  18  32
ATOM     32  C14 UNL     1       0.392   2.765  -0.682  1.00  0.00     0.043 C   
ATOM     33  C15 UNL     1       1.651   2.987  -1.525  1.00  0.00     0.010 C   
ATOM     34  C18 UNL     1      -0.750   3.103  -1.651  1.00  0.00     0.010 C   
ATOM     35  C16 UNL     1       1.313   4.246  -2.306  1.00  0.00     0.001 C   
ATOM     36  C17 UNL     1      -0.164   4.100  -2.654  1.00  0.00     0.001 C   
ENDBRANCH  18  32
ENDBRANCH   3  18
TORSDOF 9
