REMARK SMILES Cc1ccc([C@@H](CO)n2cc([C@H](CC(C)C)[NH2+]Cc3ccc4c(c3)OCO4)nn2)o1
REMARK SMILES IDX 9 1 10 2 11 3 28 4 29 5 6 7 5 8 2 9 3 10 30 11 4 12 1 13
REMARK SMILES IDX 7 14 8 15 12 17 13 18 14 19 15 20 16 21 17 22 18 25 19 26
REMARK SMILES IDX 20 27 24 28 21 29 23 30 22 31 25 32 27 33 26 34
REMARK H PARENT 10 6 8 16 17 23 17 24
ROOT
ATOM     1   N1  UNL     1      -1.927  -2.203   1.550  1.00  0.00    -0.200 N   
ATOM     2   C8  UNL     1      -1.010  -2.334   0.541  1.00  0.00     0.046 A   
ATOM     3   C9  UNL     1      -0.265  -1.180   0.606  1.00  0.00     0.127 A   
ATOM     4   N3  UNL     1      -0.765  -0.379   1.596  1.00  0.00    -0.132 NA  
ATOM     5   N4  UNL     1      -1.786  -1.005   2.157  1.00  0.00    -0.075 NA  
ATOM     6   H10 UNL     1      -0.961  -3.218  -0.078  1.00  0.00     0.083 HD  
ENDROOT
BRANCH   1   7
ATOM     7   C6  UNL     1      -2.945  -3.143   2.008  1.00  0.00     0.179 C   
BRANCH   7   8
ATOM     8   C5  UNL     1      -4.005  -3.304   0.965  1.00  0.00     0.084 A   
ATOM     9   C2  UNL     1      -4.847  -4.162  -0.872  1.00  0.00     0.056 A   
ATOM     10  C3  UNL     1      -5.794  -3.291  -0.380  1.00  0.00     0.031 A   
ATOM     11  O4  UNL     1      -3.754  -4.173  -0.059  1.00  0.00    -0.317 OA  
ATOM     12  C4  UNL     1      -5.253  -2.738   0.804  1.00  0.00     0.034 A   
ATOM     13  C1  UNL     1      -4.798  -5.046  -2.052  1.00  0.00     0.073 C   
ENDBRANCH   7   8
BRANCH   7  14
ATOM     14  C7  UNL     1      -2.350  -4.477   2.489  1.00  0.00     0.188 C   
BRANCH  14  15
ATOM     15  O1  UNL     1      -1.689  -5.220   1.461  1.00  0.00    -0.394 OA  
ATOM     16  H9  UNL     1      -2.375  -5.478   0.811  1.00  0.00     0.210 HD  
ENDBRANCH  14  15
ENDBRANCH   7  14
ENDBRANCH   1   7
BRANCH   3  17
ATOM     17  C10 UNL     1       0.916  -0.728  -0.193  1.00  0.00     0.114 C   
BRANCH  17  18
ATOM     18  C11 UNL     1       2.208  -1.402   0.311  1.00  0.00     0.064 C   
BRANCH  18  19
ATOM     19  C12 UNL     1       3.490  -1.123  -0.502  1.00  0.00    -0.012 C   
ATOM     20  C13 UNL     1       4.664  -1.882   0.118  1.00  0.00     0.007 C   
ATOM     21  C14 UNL     1       3.347  -1.512  -1.974  1.00  0.00     0.007 C   
ENDBRANCH  18  19
ENDBRANCH  17  18
BRANCH  17  22
ATOM     22  N2  UNL     1       1.064   0.766  -0.088  1.00  0.00     0.249 N   
ATOM     23  H21 UNL     1       2.026   1.075  -0.237  1.00  0.00     0.199 HD  
ATOM     24  H22 UNL     1       0.833   1.015   0.886  1.00  0.00     0.199 HD  
BRANCH  22  25
ATOM     25  C15 UNL     1       0.165   1.552  -0.972  1.00  0.00     0.164 C   
BRANCH  25  26
ATOM     26  C16 UNL     1       0.249   3.015  -0.647  1.00  0.00    -0.002 A   
ATOM     27  C17 UNL     1      -0.719   3.607   0.203  1.00  0.00     0.012 A   
ATOM     28  C21 UNL     1       1.311   3.795  -1.139  1.00  0.00     0.045 A   
ATOM     29  C18 UNL     1      -0.644   4.963   0.542  1.00  0.00     0.037 A   
ATOM     30  C20 UNL     1       1.359   5.126  -0.779  1.00  0.00     0.109 A   
ATOM     31  C19 UNL     1       0.407   5.695   0.032  1.00  0.00     0.108 A   
ATOM     32  O2  UNL     1       2.316   6.012  -1.157  1.00  0.00    -0.316 OA  
ATOM     33  O3  UNL     1       0.638   7.013   0.259  1.00  0.00    -0.316 OA  
ATOM     34  C22 UNL     1       1.841   7.218  -0.515  1.00  0.00     0.337 C   
ENDBRANCH  25  26
ENDBRANCH  22  25
ENDBRANCH  17  22
ENDBRANCH   3  17
TORSDOF 10
