REMARK SMILES Cc1ccc([C@H](CO)n2cc([C@H](CC(C)C)[NH2+]Cc3ccc4c(c3)OCO4)nn2)o1
REMARK SMILES IDX 9 1 10 2 11 3 28 4 29 5 6 7 5 8 2 9 3 10 30 11 4 12 1 13
REMARK SMILES IDX 7 14 8 15 12 17 13 18 14 19 15 20 16 21 17 22 18 25 19 26
REMARK SMILES IDX 20 27 24 28 21 29 23 30 22 31 25 32 27 33 26 34
REMARK H PARENT 10 6 8 16 17 23 17 24
ROOT
ATOM     1   N1  UNL     1      -0.881  -2.308   0.408  1.00  0.00    -0.200 N   
ATOM     2   C8  UNL     1      -0.993  -1.203  -0.395  1.00  0.00     0.046 A   
ATOM     3   C9  UNL     1       0.273  -0.662  -0.402  1.00  0.00     0.127 A   
ATOM     4   N3  UNL     1       1.089  -1.416   0.401  1.00  0.00    -0.132 NA  
ATOM     5   N4  UNL     1       0.377  -2.416   0.891  1.00  0.00    -0.075 NA  
ATOM     6   H10 UNL     1      -1.925  -0.929  -0.870  1.00  0.00     0.083 HD  
ENDROOT
BRANCH   1   7
ATOM     7   C6  UNL     1      -1.926  -3.270   0.754  1.00  0.00     0.179 C   
BRANCH   7   8
ATOM     8   C5  UNL     1      -2.260  -3.150   2.205  1.00  0.00     0.084 A   
ATOM     9   C2  UNL     1      -3.545  -2.479   3.854  1.00  0.00     0.056 A   
ATOM     10  C3  UNL     1      -2.491  -3.152   4.434  1.00  0.00     0.031 A   
ATOM     11  O4  UNL     1      -3.407  -2.470   2.500  1.00  0.00    -0.317 OA  
ATOM     12  C4  UNL     1      -1.660  -3.582   3.372  1.00  0.00     0.034 A   
ATOM     13  C1  UNL     1      -4.742  -1.803   4.396  1.00  0.00     0.073 C   
ENDBRANCH   7   8
BRANCH   7  14
ATOM     14  C7  UNL     1      -1.545  -4.699   0.351  1.00  0.00     0.188 C   
BRANCH  14  15
ATOM     15  O1  UNL     1      -1.553  -4.833  -1.074  1.00  0.00    -0.394 OA  
ATOM     16  H9  UNL     1      -1.368  -5.770  -1.272  1.00  0.00     0.210 HD  
ENDBRANCH  14  15
ENDBRANCH   7  14
ENDBRANCH   1   7
BRANCH   3  17
ATOM     17  C10 UNL     1       0.815   0.566  -1.058  1.00  0.00     0.114 C   
BRANCH  17  18
ATOM     18  C11 UNL     1       1.494   0.268  -2.408  1.00  0.00     0.064 C   
BRANCH  18  19
ATOM     19  C12 UNL     1       0.564  -0.298  -3.504  1.00  0.00    -0.012 C   
ATOM     20  C13 UNL     1      -0.567   0.667  -3.863  1.00  0.00     0.007 C   
ATOM     21  C14 UNL     1       1.383  -0.621  -4.758  1.00  0.00     0.007 C   
ENDBRANCH  18  19
ENDBRANCH  17  18
BRANCH  17  22
ATOM     22  N2  UNL     1       1.840   1.176  -0.132  1.00  0.00     0.249 N   
ATOM     23  H21 UNL     1       2.690   0.596  -0.155  1.00  0.00     0.199 HD  
ATOM     24  H22 UNL     1       1.500   1.043   0.832  1.00  0.00     0.199 HD  
BRANCH  22  25
ATOM     25  C15 UNL     1       2.168   2.607  -0.324  1.00  0.00     0.164 C   
BRANCH  25  26
ATOM     26  C16 UNL     1       3.155   3.069   0.709  1.00  0.00    -0.002 A   
ATOM     27  C17 UNL     1       2.706   3.639   1.925  1.00  0.00     0.012 A   
ATOM     28  C21 UNL     1       4.533   2.891   0.496  1.00  0.00     0.045 A   
ATOM     29  C18 UNL     1       3.615   4.040   2.910  1.00  0.00     0.037 A   
ATOM     30  C20 UNL     1       5.402   3.296   1.488  1.00  0.00     0.109 A   
ATOM     31  C19 UNL     1       4.957   3.856   2.660  1.00  0.00     0.108 A   
ATOM     32  O2  UNL     1       6.756   3.199   1.440  1.00  0.00    -0.316 OA  
ATOM     33  O3  UNL     1       5.975   4.184   3.497  1.00  0.00    -0.316 OA  
ATOM     34  C22 UNL     1       7.118   3.780   2.713  1.00  0.00     0.337 C   
ENDBRANCH  25  26
ENDBRANCH  22  25
ENDBRANCH  17  22
ENDBRANCH   3  17
TORSDOF 10
