REMARK SMILES Cc1cc(CCn2cc([C@H](CC(C)C)[NH2+]Cc3ccc4c(c3)OCO4)nn2)cc(Cl)n1
REMARK SMILES IDX 7 1 8 2 9 3 26 4 27 5 6 7 5 8 4 9 2 10 3 11 31 12 29 13
REMARK SMILES IDX 28 14 1 15 30 16 10 17 11 18 12 19 13 20 14 21 15 22 16 25
REMARK SMILES IDX 17 26 18 27 22 28 19 29 21 30 20 31 23 32 25 33 24 34
REMARK H PARENT 8 6 15 23 15 24
ROOT
ATOM     1   N1  UNL     1      -0.137   3.215  -0.330  1.00  0.00    -0.212 N   
ATOM     2   C7  UNL     1       1.082   2.595  -0.321  1.00  0.00     0.045 A   
ATOM     3   C8  UNL     1       0.941   1.573  -1.234  1.00  0.00     0.127 A   
ATOM     4   N3  UNL     1      -0.308   1.644  -1.797  1.00  0.00    -0.132 NA  
ATOM     5   N4  UNL     1      -0.954   2.657  -1.240  1.00  0.00    -0.076 NA  
ATOM     6   H9  UNL     1       1.877   2.882   0.353  1.00  0.00     0.083 HD  
ENDROOT
BRANCH   1   7
ATOM     7   C6  UNL     1      -0.630   4.202   0.611  1.00  0.00     0.139 C   
BRANCH   7   8
ATOM     8   C5  UNL     1      -1.725   3.665   1.548  1.00  0.00     0.057 C   
BRANCH   8   9
ATOM     9   C4  UNL     1      -1.427   2.304   2.140  1.00  0.00    -0.042 A   
ATOM     10  C2  UNL     1      -1.975  -0.035   2.377  1.00  0.00     0.039 A   
ATOM     11  C3  UNL     1      -2.322   1.244   1.948  1.00  0.00     0.027 A   
ATOM     12  N5  UNL     1      -0.779  -0.307   2.947  1.00  0.00    -0.241 NA  
ATOM     13  C23 UNL     1       0.027   0.743   3.201  1.00  0.00     0.129 A   
ATOM     14  C22 UNL     1      -0.245   2.050   2.838  1.00  0.00     0.044 A   
ATOM     15  C1  UNL     1      -2.937  -1.174   2.208  1.00  0.00     0.067 C   
ATOM     16  CL1 UNL     1       1.532   0.326   3.908  1.00  0.00    -0.062 Cl  
ENDBRANCH   8   9
ENDBRANCH   7   8
ENDBRANCH   1   7
BRANCH   3  17
ATOM     17  C9  UNL     1       1.844   0.434  -1.568  1.00  0.00     0.114 C   
BRANCH  17  18
ATOM     18  C10 UNL     1       2.481   0.566  -2.963  1.00  0.00     0.064 C   
BRANCH  18  19
ATOM     19  C11 UNL     1       3.402   1.791  -3.148  1.00  0.00    -0.012 C   
ATOM     20  C12 UNL     1       4.594   1.776  -2.190  1.00  0.00     0.007 C   
ATOM     21  C13 UNL     1       3.904   1.843  -4.594  1.00  0.00     0.007 C   
ENDBRANCH  18  19
ENDBRANCH  17  18
BRANCH  17  22
ATOM     22  N2  UNL     1       1.064  -0.860  -1.559  1.00  0.00     0.249 N   
ATOM     23  H20 UNL     1       0.265  -0.733  -2.195  1.00  0.00     0.199 HD  
ATOM     24  H21 UNL     1       1.623  -1.631  -1.939  1.00  0.00     0.199 HD  
BRANCH  22  25
ATOM     25  C14 UNL     1       0.519  -1.270  -0.230  1.00  0.00     0.164 C   
BRANCH  25  26
ATOM     26  C15 UNL     1      -0.217  -2.575  -0.342  1.00  0.00    -0.002 A   
ATOM     27  C16 UNL     1       0.357  -3.768   0.156  1.00  0.00     0.012 A   
ATOM     28  C20 UNL     1      -1.476  -2.621  -0.969  1.00  0.00     0.045 A   
ATOM     29  C17 UNL     1      -0.312  -4.992   0.036  1.00  0.00     0.037 A   
ATOM     30  C19 UNL     1      -2.107  -3.842  -1.071  1.00  0.00     0.109 A   
ATOM     31  C18 UNL     1      -1.542  -4.995  -0.584  1.00  0.00     0.108 A   
ATOM     32  O1  UNL     1      -3.321  -4.059  -1.642  1.00  0.00    -0.316 OA  
ATOM     33  O2  UNL     1      -2.328  -6.084  -0.788  1.00  0.00    -0.316 OA  
ATOM     34  C21 UNL     1      -3.462  -5.486  -1.451  1.00  0.00     0.337 C   
ENDBRANCH  25  26
ENDBRANCH  22  25
ENDBRANCH  17  22
ENDBRANCH   3  17
TORSDOF 9
