REMARK SMILES OCc1cc(-n2cc([C@@H]([NH2+]Cc3ccc4c(c3)OCO4)C3CCCCC3)nn2)ccn1
REMARK SMILES IDX 6 1 7 2 8 3 27 4 28 5 5 6 3 7 4 8 31 9 30 10 29 11 2 12 1 13
REMARK SMILES IDX 9 15 10 16 11 19 12 20 13 21 17 22 14 23 16 24 15 25 18 26
REMARK SMILES IDX 20 27 19 28 21 29 22 30 26 31 23 32 25 33 24 34
REMARK H PARENT 1 14 10 17 10 18
ROOT
ATOM     1   N1  UNL     1      -2.205  -1.345   0.582  1.00  0.00    -0.180 N   
ATOM     2   C5  UNL     1      -1.087  -0.538   0.669  1.00  0.00     0.135 A   
ATOM     3   C6  UNL     1      -0.325  -0.858  -0.432  1.00  0.00     0.127 A   
ATOM     4   N3  UNL     1      -0.950  -1.851  -1.132  1.00  0.00    -0.131 NA  
ATOM     5   N4  UNL     1      -2.079  -2.146  -0.508  1.00  0.00    -0.071 NA  
ENDROOT
BRANCH   1   6
ATOM     6   C4  UNL     1      -3.329  -1.413   1.438  1.00  0.00     0.061 A   
ATOM     7   C2  UNL     1      -4.566  -0.678   3.363  1.00  0.00     0.068 A   
ATOM     8   C3  UNL     1      -3.430  -0.586   2.560  1.00  0.00     0.052 A   
ATOM     9   N5  UNL     1      -5.561  -1.560   3.102  1.00  0.00    -0.259 NA  
ATOM     10  C23 UNL     1      -5.442  -2.349   2.014  1.00  0.00     0.113 A   
ATOM     11  C22 UNL     1      -4.358  -2.315   1.157  1.00  0.00     0.046 A   
BRANCH   7  12
ATOM     12  C1  UNL     1      -4.729   0.176   4.600  1.00  0.00     0.212 C   
BRANCH  12  13
ATOM     13  O1  UNL     1      -3.902   1.340   4.567  1.00  0.00    -0.390 OA  
ATOM     14  H1  UNL     1      -4.188   1.890   5.317  1.00  0.00     0.211 HD  
ENDBRANCH  12  13
ENDBRANCH   7  12
ENDBRANCH   1   6
BRANCH   3  15
ATOM     15  C7  UNL     1       1.004  -0.354  -0.897  1.00  0.00     0.117 C   
BRANCH  15  16
ATOM     16  N2  UNL     1       1.754  -1.455  -1.621  1.00  0.00     0.249 N   
ATOM     17  H7  UNL     1       1.086  -1.874  -2.284  1.00  0.00     0.199 HD  
ATOM     18  H8  UNL     1       2.522  -1.060  -2.171  1.00  0.00     0.199 HD  
BRANCH  16  19
ATOM     19  C8  UNL     1       2.282  -2.566  -0.773  1.00  0.00     0.164 C   
BRANCH  19  20
ATOM     20  C9  UNL     1       3.416  -2.131   0.113  1.00  0.00    -0.002 A   
ATOM     21  C10 UNL     1       4.698  -1.881  -0.433  1.00  0.00     0.012 A   
ATOM     22  C14 UNL     1       3.201  -1.938   1.489  1.00  0.00     0.045 A   
ATOM     23  C11 UNL     1       5.750  -1.438   0.376  1.00  0.00     0.037 A   
ATOM     24  C13 UNL     1       4.259  -1.497   2.257  1.00  0.00     0.109 A   
ATOM     25  C12 UNL     1       5.497  -1.253   1.717  1.00  0.00     0.108 A   
ATOM     26  O2  UNL     1       4.216  -1.250   3.592  1.00  0.00    -0.316 OA  
ATOM     27  O3  UNL     1       6.392  -0.825   2.644  1.00  0.00    -0.316 OA  
ATOM     28  C15 UNL     1       5.585  -0.857   3.842  1.00  0.00     0.337 C   
ENDBRANCH  19  20
ENDBRANCH  16  19
ENDBRANCH  15  16
BRANCH  15  29
ATOM     29  C16 UNL     1       0.927   0.878  -1.839  1.00  0.00     0.043 C   
ATOM     30  C17 UNL     1       0.119   0.641  -3.131  1.00  0.00     0.010 C   
ATOM     31  C21 UNL     1       0.397   2.125  -1.103  1.00  0.00     0.010 C   
ATOM     32  C18 UNL     1       0.116   1.879  -4.028  1.00  0.00     0.001 C   
ATOM     33  C20 UNL     1       0.401   3.357  -2.005  1.00  0.00     0.001 C   
ATOM     34  C19 UNL     1      -0.387   3.114  -3.288  1.00  0.00     0.000 C   
ENDBRANCH  15  29
ENDBRANCH   3  15
TORSDOF 8
