REMARK SMILES CC(C)C[C@H]([NH2+]Cc1ccc2c(c1)OCO2)c1cn(-c2ccc(CO)c(F)c2)nn1
REMARK SMILES IDX 17 1 18 2 19 3 29 4 30 5 5 6 4 7 2 8 1 9 3 10 6 11 7 14 8 15
REMARK SMILES IDX 9 16 13 17 10 18 12 19 11 20 14 21 16 22 15 23 20 24 21 25
REMARK SMILES IDX 28 26 22 27 26 28 23 29 27 30 24 31 25 32
REMARK H PARENT 6 12 6 13 25 33
ROOT
ATOM     1   C14 UNL     1       0.264   0.777  -0.682  1.00  0.00     0.127 A   
ATOM     2   C15 UNL     1      -0.798  -0.098  -0.626  1.00  0.00     0.135 A   
ATOM     3   N2  UNL     1      -0.298  -1.294  -1.101  1.00  0.00    -0.181 N   
ATOM     4   N3  UNL     1       0.990  -1.104  -1.494  1.00  0.00    -0.071 NA  
ATOM     5   N4  UNL     1       1.343   0.142  -1.227  1.00  0.00    -0.131 NA  
ENDROOT
BRANCH   1   6
ATOM     6   C5  UNL     1       0.425   2.168  -0.156  1.00  0.00     0.114 C   
BRANCH   6   7
ATOM     7   C4  UNL     1       0.440   3.200  -1.303  1.00  0.00     0.064 C   
BRANCH   7   8
ATOM     8   C2  UNL     1       0.459   4.683  -0.872  1.00  0.00    -0.012 C   
ATOM     9   C1  UNL     1      -0.766   5.065  -0.038  1.00  0.00     0.007 C   
ATOM     10  C3  UNL     1       0.533   5.578  -2.114  1.00  0.00     0.007 C   
ENDBRANCH   7   8
ENDBRANCH   6   7
BRANCH   6  11
ATOM     11  N1  UNL     1       1.724   2.253   0.620  1.00  0.00     0.249 N   
ATOM     12  H11 UNL     1       2.358   1.563   0.187  1.00  0.00     0.199 HD  
ATOM     13  H12 UNL     1       2.179   3.161   0.486  1.00  0.00     0.199 HD  
BRANCH  11  14
ATOM     14  C6  UNL     1       1.645   1.961   2.084  1.00  0.00     0.164 C   
BRANCH  14  15
ATOM     15  C7  UNL     1       1.178   0.566   2.399  1.00  0.00    -0.002 A   
ATOM     16  C8  UNL     1       2.046  -0.538   2.211  1.00  0.00     0.012 A   
ATOM     17  C12 UNL     1      -0.147   0.338   2.817  1.00  0.00     0.045 A   
ATOM     18  C9  UNL     1       1.598  -1.848   2.416  1.00  0.00     0.037 A   
ATOM     19  C11 UNL     1      -0.559  -0.967   2.998  1.00  0.00     0.109 A   
ATOM     20  C10 UNL     1       0.287  -2.030   2.803  1.00  0.00     0.108 A   
ATOM     21  O1  UNL     1      -1.813  -1.358   3.352  1.00  0.00    -0.316 OA  
ATOM     22  O2  UNL     1      -0.321  -3.224   3.021  1.00  0.00    -0.316 OA  
ATOM     23  C13 UNL     1      -1.645  -2.796   3.413  1.00  0.00     0.337 C   
ENDBRANCH  14  15
ENDBRANCH  11  14
ENDBRANCH   6  11
ENDBRANCH   1   6
BRANCH   3  24
ATOM     24  C16 UNL     1      -0.927  -2.560  -1.167  1.00  0.00     0.060 A   
ATOM     25  C17 UNL     1      -0.229  -3.655  -1.700  1.00  0.00     0.026 A   
ATOM     26  C22 UNL     1      -2.233  -2.742  -0.698  1.00  0.00     0.065 A   
ATOM     27  C18 UNL     1      -0.833  -4.914  -1.762  1.00  0.00     0.011 A   
ATOM     28  C21 UNL     1      -2.817  -4.007  -0.761  1.00  0.00     0.130 A   
ATOM     29  C19 UNL     1      -2.135  -5.109  -1.281  1.00  0.00     0.013 A   
ATOM     30  F1  UNL     1      -4.074  -4.151  -0.311  1.00  0.00    -0.207 F   
BRANCH  29  31
ATOM     31  C20 UNL     1      -2.828  -6.440  -1.363  1.00  0.00     0.194 C   
BRANCH  31  32
ATOM     32  O3  UNL     1      -1.886  -7.504  -1.380  1.00  0.00    -0.392 OA  
ATOM     33  H25 UNL     1      -2.376  -8.315  -1.597  1.00  0.00     0.211 HD  
ENDBRANCH  31  32
ENDBRANCH  29  31
ENDBRANCH   3  24
TORSDOF 9
