REMARK SMILES CC(C)C[C@H]([NH2+]Cc1ccc2c(c1)OCO2)c1cn(CCc2n[nH]c3ccccc23)nn1
REMARK SMILES IDX 17 1 18 2 19 3 31 4 32 5 5 7 4 8 2 9 1 10 3 11 6 12 7 15
REMARK SMILES IDX 8 16 9 17 13 18 10 19 12 20 11 21 14 22 16 23 15 24 20 25
REMARK SMILES IDX 21 26 22 27 23 28 30 29 24 30 25 31 29 32 26 33 28 34 27 35
REMARK H PARENT 18 6 6 13 6 14 24 36
ROOT
ATOM     1   C14 UNL     1      -0.892   0.775   2.243  1.00  0.00     0.127 A   
ATOM     2   C15 UNL     1      -0.180  -0.141   2.985  1.00  0.00     0.045 A   
ATOM     3   N2  UNL     1       0.828   0.596   3.539  1.00  0.00    -0.212 N   
ATOM     4   N5  UNL     1       0.719   1.894   3.204  1.00  0.00    -0.076 NA  
ATOM     5   N6  UNL     1      -0.335   2.019   2.416  1.00  0.00    -0.132 NA  
ATOM     6   H20 UNL     1      -0.243  -1.213   3.113  1.00  0.00     0.083 HD  
ENDROOT
BRANCH   1   7
ATOM     7   C5  UNL     1      -2.023   0.628   1.275  1.00  0.00     0.114 C   
BRANCH   7   8
ATOM     8   C4  UNL     1      -2.349  -0.827   0.895  1.00  0.00     0.064 C   
BRANCH   8   9
ATOM     9   C2  UNL     1      -3.497  -1.022  -0.119  1.00  0.00    -0.012 C   
ATOM     10  C1  UNL     1      -4.822  -0.445   0.381  1.00  0.00     0.007 C   
ATOM     11  C3  UNL     1      -3.666  -2.514  -0.424  1.00  0.00     0.007 C   
ENDBRANCH   8   9
ENDBRANCH   7   8
BRANCH   7  12
ATOM     12  N1  UNL     1      -1.754   1.465   0.052  1.00  0.00     0.249 N   
ATOM     13  H11 UNL     1      -1.549   2.409   0.412  1.00  0.00     0.199 HD  
ATOM     14  H12 UNL     1      -2.592   1.566  -0.528  1.00  0.00     0.199 HD  
BRANCH  12  15
ATOM     15  C6  UNL     1      -0.584   1.083  -0.791  1.00  0.00     0.164 C   
BRANCH  15  16
ATOM     16  C7  UNL     1      -0.345   2.117  -1.856  1.00  0.00    -0.002 A   
ATOM     17  C8  UNL     1      -0.853   1.934  -3.164  1.00  0.00     0.012 A   
ATOM     18  C12 UNL     1       0.352   3.296  -1.540  1.00  0.00     0.045 A   
ATOM     19  C9  UNL     1      -0.657   2.906  -4.151  1.00  0.00     0.037 A   
ATOM     20  C11 UNL     1       0.528   4.233  -2.537  1.00  0.00     0.109 A   
ATOM     21  C10 UNL     1       0.037   4.044  -3.805  1.00  0.00     0.108 A   
ATOM     22  O1  UNL     1       1.180   5.417  -2.403  1.00  0.00    -0.316 OA  
ATOM     23  O2  UNL     1       0.319   5.086  -4.630  1.00  0.00    -0.316 OA  
ATOM     24  C13 UNL     1       1.055   5.953  -3.740  1.00  0.00     0.337 C   
ENDBRANCH  15  16
ENDBRANCH  12  15
ENDBRANCH   7  12
ENDBRANCH   1   7
BRANCH   3  25
ATOM     25  C16 UNL     1       1.986   0.112   4.263  1.00  0.00     0.140 C   
BRANCH  25  26
ATOM     26  C17 UNL     1       3.249   0.120   3.404  1.00  0.00     0.080 C   
BRANCH  26  27
ATOM     27  C18 UNL     1       3.103  -0.680   2.148  1.00  0.00     0.069 A   
ATOM     28  N3  UNL     1       2.854  -1.994   2.218  1.00  0.00    -0.188 NA  
ATOM     29  C24 UNL     1       3.136  -0.219   0.803  1.00  0.00     0.020 A   
ATOM     30  N4  UNL     1       2.840  -2.388   0.932  1.00  0.00    -0.238 N   
ATOM     31  C19 UNL     1       2.932  -1.359   0.033  1.00  0.00     0.057 A   
ATOM     32  C23 UNL     1       3.314   1.018   0.156  1.00  0.00     0.012 A   
ATOM     33  C20 UNL     1       2.890  -1.339  -1.365  1.00  0.00     0.026 A   
ATOM     34  C22 UNL     1       3.280   1.060  -1.244  1.00  0.00     0.001 A   
ATOM     35  C21 UNL     1       3.067  -0.100  -1.989  1.00  0.00     0.002 A   
ATOM     36  H25 UNL     1       2.748  -3.379   0.732  1.00  0.00     0.176 HD  
ENDBRANCH  26  27
ENDBRANCH  25  26
ENDBRANCH   3  25
TORSDOF 9
