REMARK SMILES COc1cc(O)ccc1Cn1cc([C@@H]([NH2+]Cc2ccc3c(c2)OCO3)C(C)C)nn1
REMARK SMILES IDX 11 1 12 2 13 3 29 4 30 5 10 7 9 8 3 9 4 10 5 11 8 12 7 13
REMARK SMILES IDX 2 14 1 15 6 16 14 18 15 19 16 22 17 23 18 24 22 25 19 26
REMARK SMILES IDX 21 27 20 28 23 29 25 30 24 31 26 32 27 33 28 34
REMARK H PARENT 12 6 6 17 15 20 15 21
ROOT
ATOM     1   N1  UNL     1      -1.215   1.635  -2.491  1.00  0.00    -0.208 N   
ATOM     2   C9  UNL     1      -0.221   1.592  -1.552  1.00  0.00     0.046 A   
ATOM     3   C10 UNL     1       0.647   0.635  -2.024  1.00  0.00     0.127 A   
ATOM     4   N3  UNL     1       0.167   0.142  -3.212  1.00  0.00    -0.132 NA  
ATOM     5   N4  UNL     1      -0.973   0.755  -3.483  1.00  0.00    -0.076 NA  
ATOM     6   H10 UNL     1      -0.236   2.216  -0.668  1.00  0.00     0.083 HD  
ENDROOT
BRANCH   1   7
ATOM     7   C8  UNL     1      -2.405   2.470  -2.511  1.00  0.00     0.172 C   
BRANCH   7   8
ATOM     8   C7  UNL     1      -3.445   1.952  -1.545  1.00  0.00     0.002 A   
ATOM     9   C2  UNL     1      -3.511   2.422  -0.219  1.00  0.00     0.082 A   
ATOM     10  C3  UNL     1      -4.470   1.898   0.653  1.00  0.00     0.067 A   
ATOM     11  C4  UNL     1      -5.363   0.929   0.205  1.00  0.00     0.074 A   
ATOM     12  C6  UNL     1      -4.354   0.966  -1.974  1.00  0.00     0.011 A   
ATOM     13  C5  UNL     1      -5.317   0.459  -1.101  1.00  0.00     0.034 A   
BRANCH   9  14
ATOM     14  O1  UNL     1      -2.581   3.366   0.130  1.00  0.00    -0.349 OA  
ATOM     15  C1  UNL     1      -2.834   4.098   1.330  1.00  0.00     0.203 C   
ENDBRANCH   9  14
BRANCH  11  16
ATOM     16  O2  UNL     1      -6.279   0.458   1.099  1.00  0.00    -0.361 OA  
ATOM     17  H5  UNL     1      -6.916  -0.113   0.637  1.00  0.00     0.218 HD  
ENDBRANCH  11  16
ENDBRANCH   7   8
ENDBRANCH   1   7
BRANCH   3  18
ATOM     18  C11 UNL     1       1.896   0.065  -1.438  1.00  0.00     0.117 C   
BRANCH  18  19
ATOM     19  N2  UNL     1       2.056  -1.383  -1.853  1.00  0.00     0.249 N   
ATOM     20  H12 UNL     1       1.944  -1.403  -2.877  1.00  0.00     0.199 HD  
ATOM     21  H13 UNL     1       3.002  -1.714  -1.639  1.00  0.00     0.199 HD  
BRANCH  19  22
ATOM     22  C12 UNL     1       1.058  -2.346  -1.296  1.00  0.00     0.164 C   
BRANCH  22  23
ATOM     23  C13 UNL     1       1.196  -2.550   0.187  1.00  0.00    -0.002 A   
ATOM     24  C14 UNL     1       0.267  -1.960   1.076  1.00  0.00     0.012 A   
ATOM     25  C18 UNL     1       2.260  -3.311   0.702  1.00  0.00     0.045 A   
ATOM     26  C15 UNL     1       0.390  -2.127   2.460  1.00  0.00     0.037 A   
ATOM     27  C17 UNL     1       2.350  -3.460   2.071  1.00  0.00     0.109 A   
ATOM     28  C16 UNL     1       1.441  -2.886   2.925  1.00  0.00     0.108 A   
ATOM     29  O3  UNL     1       3.307  -4.167   2.727  1.00  0.00    -0.316 OA  
ATOM     30  O4  UNL     1       1.710  -3.162   4.228  1.00  0.00    -0.316 OA  
ATOM     31  C19 UNL     1       2.877  -4.001   4.098  1.00  0.00     0.337 C   
ENDBRANCH  22  23
ENDBRANCH  19  22
ENDBRANCH  18  19
BRANCH  18  32
ATOM     32  C20 UNL     1       3.188   0.828  -1.831  1.00  0.00     0.037 C   
ATOM     33  C21 UNL     1       3.211   2.241  -1.235  1.00  0.00     0.014 C   
ATOM     34  C22 UNL     1       3.443   0.900  -3.340  1.00  0.00     0.014 C   
ENDBRANCH  18  32
ENDBRANCH   3  18
TORSDOF 9
