REMARK SMILES COc1ccc(C)cc1Cn1cc([C@@H]([NH2+]Cc2ccc3c(c2)OCO3)C(C)(C)C)nn1
REMARK SMILES IDX 11 1 12 2 13 3 30 4 31 5 10 7 9 8 3 9 4 10 5 11 8 12 6 13
REMARK SMILES IDX 7 14 2 15 1 16 14 17 15 18 16 21 17 22 18 23 22 24 19 25
REMARK SMILES IDX 21 26 20 27 23 28 25 29 24 30 26 31 27 32 28 33 29 34
REMARK H PARENT 12 6 15 19 15 20
ROOT
ATOM     1   N1  UNL     1      -1.161  -2.001  -0.265  1.00  0.00    -0.208 N   
ATOM     2   C10 UNL     1      -1.533  -0.876  -0.949  1.00  0.00     0.046 A   
ATOM     3   C11 UNL     1      -0.354  -0.403  -1.480  1.00  0.00     0.127 A   
ATOM     4   N3  UNL     1       0.672  -1.236  -1.111  1.00  0.00    -0.132 NA  
ATOM     5   N4  UNL     1       0.167  -2.209  -0.372  1.00  0.00    -0.076 NA  
ATOM     6   H12 UNL     1      -2.557  -0.528  -0.969  1.00  0.00     0.083 HD  
ENDROOT
BRANCH   1   7
ATOM     7   C9  UNL     1      -1.998  -2.911   0.497  1.00  0.00     0.172 C   
BRANCH   7   8
ATOM     8   C8  UNL     1      -2.205  -2.402   1.903  1.00  0.00     0.002 A   
ATOM     9   C2  UNL     1      -3.295  -1.576   2.230  1.00  0.00     0.079 A   
ATOM     10  C3  UNL     1      -3.435  -1.108   3.539  1.00  0.00     0.034 A   
ATOM     11  C4  UNL     1      -2.508  -1.464   4.523  1.00  0.00     0.006 A   
ATOM     12  C7  UNL     1      -1.275  -2.746   2.902  1.00  0.00     0.011 A   
ATOM     13  C5  UNL     1      -1.429  -2.295   4.217  1.00  0.00    -0.051 A   
ATOM     14  C6  UNL     1      -0.419  -2.655   5.267  1.00  0.00     0.044 C   
BRANCH   9  15
ATOM     15  O1  UNL     1      -4.142  -1.260   1.200  1.00  0.00    -0.349 OA  
ATOM     16  C1  UNL     1      -5.423  -0.748   1.563  1.00  0.00     0.203 C   
ENDBRANCH   9  15
ENDBRANCH   7   8
ENDBRANCH   1   7
BRANCH   3  17
ATOM     17  C12 UNL     1      -0.044   0.841  -2.256  1.00  0.00     0.120 C   
BRANCH  17  18
ATOM     18  N2  UNL     1       1.304   1.355  -1.807  1.00  0.00     0.250 N   
ATOM     19  H14 UNL     1       1.733   1.991  -2.482  1.00  0.00     0.199 HD  
ATOM     20  H15 UNL     1       1.925   0.532  -1.754  1.00  0.00     0.199 HD  
BRANCH  18  21
ATOM     21  C13 UNL     1       1.324   1.996  -0.461  1.00  0.00     0.164 C   
BRANCH  21  22
ATOM     22  C14 UNL     1       2.729   2.358  -0.074  1.00  0.00    -0.002 A   
ATOM     23  C15 UNL     1       3.246   3.644  -0.359  1.00  0.00     0.012 A   
ATOM     24  C19 UNL     1       3.559   1.394   0.526  1.00  0.00     0.045 A   
ATOM     25  C16 UNL     1       4.569   3.972  -0.041  1.00  0.00     0.037 A   
ATOM     26  C18 UNL     1       4.856   1.751   0.828  1.00  0.00     0.109 A   
ATOM     27  C17 UNL     1       5.348   3.003   0.552  1.00  0.00     0.108 A   
ATOM     28  O2  UNL     1       5.784   0.946   1.408  1.00  0.00    -0.316 OA  
ATOM     29  O3  UNL     1       6.646   3.144   0.924  1.00  0.00    -0.316 OA  
ATOM     30  C20 UNL     1       6.914   1.843   1.490  1.00  0.00     0.337 C   
ENDBRANCH  21  22
ENDBRANCH  18  21
ENDBRANCH  17  18
BRANCH  17  31
ATOM     31  C21 UNL     1      -0.067   0.651  -3.812  1.00  0.00     0.010 C   
ATOM     32  C22 UNL     1       1.032  -0.307  -4.312  1.00  0.00     0.017 C   
ATOM     33  C23 UNL     1       0.119   2.014  -4.521  1.00  0.00     0.017 C   
ATOM     34  C24 UNL     1      -1.438   0.096  -4.262  1.00  0.00     0.017 C   
ENDBRANCH  17  31
ENDBRANCH   3  17
TORSDOF 8
