REMARK SMILES CC(C)(C)[C@H]([NH2+]Cc1ccc2c(c1)OCO2)c1cn(CCc2cscn2)nn1
REMARK SMILES IDX 17 1 18 2 19 3 27 4 28 5 5 7 2 8 1 9 3 10 4 11 6 12 7 15
REMARK SMILES IDX 8 16 9 17 13 18 10 19 12 20 11 21 14 22 16 23 15 24 20 25
REMARK SMILES IDX 21 26 22 27 23 28 26 29 24 30 25 31
REMARK H PARENT 18 6 6 13 6 14
ROOT
ATOM     1   C14 UNL     1      -0.033   0.105  -0.878  1.00  0.00     0.127 A   
ATOM     2   C15 UNL     1      -0.021  -0.175  -2.226  1.00  0.00     0.045 A   
ATOM     3   N2  UNL     1       1.209  -0.728  -2.436  1.00  0.00    -0.212 N   
ATOM     4   N4  UNL     1       1.882  -0.861  -1.278  1.00  0.00    -0.076 NA  
ATOM     5   N5  UNL     1       1.136  -0.342  -0.316  1.00  0.00    -0.132 NA  
ATOM     6   H20 UNL     1      -0.718  -0.000  -3.034  1.00  0.00     0.083 HD  
ENDROOT
BRANCH   1   7
ATOM     7   C5  UNL     1      -1.082   0.726  -0.005  1.00  0.00     0.120 C   
BRANCH   7   8
ATOM     8   C2  UNL     1      -0.981   2.289   0.106  1.00  0.00     0.010 C   
ATOM     9   C1  UNL     1      -2.196   2.848   0.883  1.00  0.00     0.017 C   
ATOM     10  C3  UNL     1       0.306   2.752   0.818  1.00  0.00     0.017 C   
ATOM     11  C4  UNL     1      -1.015   2.934  -1.299  1.00  0.00     0.017 C   
ENDBRANCH   7   8
BRANCH   7  12
ATOM     12  N1  UNL     1      -1.000   0.097   1.367  1.00  0.00     0.250 N   
ATOM     13  H11 UNL     1       0.004   0.055   1.607  1.00  0.00     0.199 HD  
ATOM     14  H12 UNL     1      -1.439   0.670   2.091  1.00  0.00     0.199 HD  
BRANCH  12  15
ATOM     15  C6  UNL     1      -1.530  -1.290   1.467  1.00  0.00     0.164 C   
BRANCH  15  16
ATOM     16  C7  UNL     1      -1.260  -1.853   2.834  1.00  0.00    -0.002 A   
ATOM     17  C8  UNL     1      -2.189  -1.667   3.885  1.00  0.00     0.012 A   
ATOM     18  C12 UNL     1      -0.048  -2.521   3.088  1.00  0.00     0.045 A   
ATOM     19  C9  UNL     1      -1.920  -2.147   5.172  1.00  0.00     0.037 A   
ATOM     20  C11 UNL     1       0.185  -2.980   4.367  1.00  0.00     0.109 A   
ATOM     21  C10 UNL     1      -0.724  -2.797   5.381  1.00  0.00     0.108 A   
ATOM     22  O1  UNL     1       1.298  -3.641   4.780  1.00  0.00    -0.316 OA  
ATOM     23  O2  UNL     1      -0.299  -3.323   6.559  1.00  0.00    -0.316 OA  
ATOM     24  C13 UNL     1       0.980  -3.871   6.172  1.00  0.00     0.337 C   
ENDBRANCH  15  16
ENDBRANCH  12  15
ENDBRANCH   7  12
ENDBRANCH   1   7
BRANCH   3  25
ATOM     25  C16 UNL     1       1.802  -1.151  -3.687  1.00  0.00     0.140 C   
BRANCH  25  26
ATOM     26  C17 UNL     1       2.826  -0.154  -4.218  1.00  0.00     0.078 C   
BRANCH  26  27
ATOM     27  C18 UNL     1       2.244   1.178  -4.580  1.00  0.00     0.049 A   
ATOM     28  C19 UNL     1       2.879   2.402  -4.469  1.00  0.00     0.070 A   
ATOM     29  N3  UNL     1       0.955   1.238  -5.091  1.00  0.00    -0.254 NA  
ATOM     30  S1  UNL     1       1.851   3.655  -5.027  1.00  0.00    -0.084 S   
ATOM     31  C20 UNL     1       0.654   2.483  -5.390  1.00  0.00     0.156 A   
ENDBRANCH  26  27
ENDBRANCH  25  26
ENDBRANCH   3  25
TORSDOF 8
