REMARK SMILES CCn1cnc(Cl)c1Cn1cc([C@H](CC(C)C)[NH2+]Cc2ccc3c(c2)OCO3)nn1
REMARK SMILES IDX 10 1 11 2 12 3 29 4 30 5 9 7 8 8 3 9 4 10 5 11 6 12 7 13
REMARK SMILES IDX 2 14 1 15 13 16 14 17 15 18 16 19 17 20 18 21 19 24 20 25
REMARK SMILES IDX 21 26 25 27 22 28 24 29 23 30 26 31 28 32 27 33
REMARK H PARENT 11 6 18 22 18 23
ROOT
ATOM     1   N3  UNL     1      -2.524  -0.866   0.836  1.00  0.00    -0.206 N   
ATOM     2   C7  UNL     1      -1.187  -0.983   0.564  1.00  0.00     0.046 A   
ATOM     3   C8  UNL     1      -0.577  -0.377   1.639  1.00  0.00     0.127 A   
ATOM     4   N5  UNL     1      -1.534   0.029   2.532  1.00  0.00    -0.132 NA  
ATOM     5   N6  UNL     1      -2.719  -0.285   2.035  1.00  0.00    -0.076 NA  
ATOM     6   H9  UNL     1      -0.816  -1.413  -0.356  1.00  0.00     0.083 HD  
ENDROOT
BRANCH   1   7
ATOM     7   C6  UNL     1      -3.661  -1.219  -0.009  1.00  0.00     0.188 C   
BRANCH   7   8
ATOM     8   C5  UNL     1      -3.530  -0.632  -1.374  1.00  0.00     0.068 A   
ATOM     9   N1  UNL     1      -3.643  -1.334  -2.554  1.00  0.00    -0.291 N   
ATOM     10  C3  UNL     1      -3.421  -0.458  -3.580  1.00  0.00     0.190 A   
ATOM     11  N2  UNL     1      -3.190   0.754  -3.136  1.00  0.00    -0.227 NA  
ATOM     12  C4  UNL     1      -3.294   0.673  -1.775  1.00  0.00     0.149 A   
ATOM     13  CL1 UNL     1      -3.092   2.041  -0.782  1.00  0.00    -0.060 Cl  
BRANCH   9  14
ATOM     14  C2  UNL     1      -3.966  -2.737  -2.739  1.00  0.00     0.109 C   
ATOM     15  C1  UNL     1      -2.734  -3.623  -2.679  1.00  0.00     0.025 C   
ENDBRANCH   9  14
ENDBRANCH   7   8
ENDBRANCH   1   7
BRANCH   3  16
ATOM     16  C9  UNL     1       0.852  -0.040   1.895  1.00  0.00     0.114 C   
BRANCH  16  17
ATOM     17  C10 UNL     1       1.476  -0.902   3.009  1.00  0.00     0.064 C   
BRANCH  17  18
ATOM     18  C11 UNL     1       1.534  -2.415   2.708  1.00  0.00    -0.012 C   
ATOM     19  C12 UNL     1       2.366  -2.732   1.465  1.00  0.00     0.007 C   
ATOM     20  C13 UNL     1       2.110  -3.158   3.917  1.00  0.00     0.007 C   
ENDBRANCH  17  18
ENDBRANCH  16  17
BRANCH  16  21
ATOM     21  N4  UNL     1       0.962   1.406   2.341  1.00  0.00     0.249 N   
ATOM     22  H20 UNL     1       0.306   1.515   3.128  1.00  0.00     0.199 HD  
ATOM     23  H21 UNL     1       1.903   1.593   2.699  1.00  0.00     0.199 HD  
BRANCH  21  24
ATOM     24  C14 UNL     1       0.608   2.443   1.323  1.00  0.00     0.164 C   
BRANCH  24  25
ATOM     25  C15 UNL     1       1.553   2.460   0.154  1.00  0.00    -0.002 A   
ATOM     26  C16 UNL     1       2.866   2.969   0.301  1.00  0.00     0.012 A   
ATOM     27  C20 UNL     1       1.149   1.935  -1.086  1.00  0.00     0.045 A   
ATOM     28  C17 UNL     1       3.768   2.950  -0.769  1.00  0.00     0.037 A   
ATOM     29  C19 UNL     1       2.064   1.927  -2.118  1.00  0.00     0.109 A   
ATOM     30  C18 UNL     1       3.336   2.421  -1.964  1.00  0.00     0.108 A   
ATOM     31  O1  UNL     1       1.842   1.445  -3.369  1.00  0.00    -0.316 OA  
ATOM     32  O2  UNL     1       4.072   2.317  -3.101  1.00  0.00    -0.316 OA  
ATOM     33  C21 UNL     1       3.104   1.744  -4.006  1.00  0.00     0.337 C   
ENDBRANCH  24  25
ENDBRANCH  21  24
ENDBRANCH  16  21
ENDBRANCH   3  16
TORSDOF 9
