REMARK SMILES C/C(=C\c1ccco1)[C@H](CO)n1cc([C@@H]([NH2+]Cc2ccc3c(c2)OCO3)C(C)C)nn1
REMARK SMILES IDX 12 1 13 2 14 3 30 4 31 5 9 7 2 8 1 9 3 10 4 11 5 12 8 13
REMARK SMILES IDX 6 14 7 15 10 16 11 17 15 19 16 20 17 23 18 24 19 25 23 26
REMARK SMILES IDX 20 27 22 28 21 29 24 30 26 31 25 32 27 33 28 34 29 35
REMARK H PARENT 13 6 11 18 16 21 16 22
ROOT
ATOM     1   N1  UNL     1       0.695   0.104  -1.307  1.00  0.00    -0.203 N   
ATOM     2   C10 UNL     1      -0.613   0.354  -0.987  1.00  0.00     0.046 A   
ATOM     3   C11 UNL     1      -0.617   1.675  -0.610  1.00  0.00     0.127 A   
ATOM     4   N3  UNL     1       0.656   2.176  -0.702  1.00  0.00    -0.132 NA  
ATOM     5   N4  UNL     1       1.450   1.209  -1.133  1.00  0.00    -0.075 NA  
ATOM     6   H12 UNL     1      -1.372  -0.415  -1.037  1.00  0.00     0.083 HD  
ENDROOT
BRANCH   1   7
ATOM     7   C8  UNL     1       1.308  -1.166  -1.714  1.00  0.00     0.151 C   
BRANCH   7   8
ATOM     8   C2  UNL     1       0.496  -1.840  -2.833  1.00  0.00    -0.046 C   
ATOM     9   C1  UNL     1       0.524  -1.067  -4.136  1.00  0.00     0.042 C   
BRANCH   8  10
ATOM     10  C3  UNL     1      -0.147  -3.016  -2.671  1.00  0.00     0.035 C   
BRANCH  10  11
ATOM     11  C4  UNL     1      -0.978  -3.620  -3.658  1.00  0.00     0.081 A   
ATOM     12  C5  UNL     1      -1.256  -4.970  -3.841  1.00  0.00     0.036 A   
ATOM     13  O1  UNL     1      -1.710  -2.922  -4.595  1.00  0.00    -0.318 OA  
ATOM     14  C6  UNL     1      -2.153  -5.090  -4.929  1.00  0.00     0.028 A   
ATOM     15  C7  UNL     1      -2.397  -3.810  -5.353  1.00  0.00     0.136 A   
ENDBRANCH  10  11
ENDBRANCH   8  10
ENDBRANCH   7   8
BRANCH   7  16
ATOM     16  C9  UNL     1       1.639  -1.987  -0.448  1.00  0.00     0.185 C   
BRANCH  16  17
ATOM     17  O2  UNL     1       0.480  -2.286   0.333  1.00  0.00    -0.394 OA  
ATOM     18  H11 UNL     1       0.791  -2.511   1.232  1.00  0.00     0.210 HD  
ENDBRANCH  16  17
ENDBRANCH   7  16
ENDBRANCH   1   7
BRANCH   3  19
ATOM     19  C12 UNL     1      -1.719   2.530  -0.088  1.00  0.00     0.117 C   
BRANCH  19  20
ATOM     20  N2  UNL     1      -1.228   3.369   1.071  1.00  0.00     0.249 N   
ATOM     21  H14 UNL     1      -1.774   4.233   1.131  1.00  0.00     0.199 HD  
ATOM     22  H15 UNL     1      -0.261   3.645   0.836  1.00  0.00     0.199 HD  
BRANCH  20  23
ATOM     23  C13 UNL     1      -1.219   2.705   2.408  1.00  0.00     0.164 C   
BRANCH  23  24
ATOM     24  C14 UNL     1       0.049   1.959   2.717  1.00  0.00    -0.002 A   
ATOM     25  C15 UNL     1       1.224   2.675   3.054  1.00  0.00     0.012 A   
ATOM     26  C19 UNL     1       0.085   0.554   2.680  1.00  0.00     0.045 A   
ATOM     27  C16 UNL     1       2.413   2.005   3.361  1.00  0.00     0.037 A   
ATOM     28  C18 UNL     1       1.275  -0.077   2.989  1.00  0.00     0.109 A   
ATOM     29  C17 UNL     1       2.404   0.628   3.323  1.00  0.00     0.108 A   
ATOM     30  O3  UNL     1       1.482  -1.423   3.006  1.00  0.00    -0.316 OA  
ATOM     31  O4  UNL     1       3.458  -0.180   3.606  1.00  0.00    -0.316 OA  
ATOM     32  C20 UNL     1       2.861  -1.481   3.440  1.00  0.00     0.337 C   
ENDBRANCH  23  24
ENDBRANCH  20  23
ENDBRANCH  19  20
BRANCH  19  33
ATOM     33  C21 UNL     1      -2.346   3.470  -1.152  1.00  0.00     0.037 C   
ATOM     34  C22 UNL     1      -1.367   4.479  -1.764  1.00  0.00     0.014 C   
ATOM     35  C23 UNL     1      -3.037   2.676  -2.268  1.00  0.00     0.014 C   
ENDBRANCH  19  33
ENDBRANCH   3  19
TORSDOF 11
