REMARK SMILES C/C(=C\c1ccco1)[C@@H](CO)n1cc([C@@H]([NH2+]Cc2ccc3c(c2)OCO3)C(C)C)nn1
REMARK SMILES IDX 12 1 13 2 14 3 30 4 31 5 9 7 2 8 1 9 3 10 4 11 5 12 8 13
REMARK SMILES IDX 6 14 7 15 10 16 11 17 15 19 16 20 17 23 18 24 19 25 23 26
REMARK SMILES IDX 20 27 22 28 21 29 24 30 26 31 25 32 27 33 28 34 29 35
REMARK H PARENT 13 6 11 18 16 21 16 22
ROOT
ATOM     1   N1  UNL     1       1.179   1.262   2.728  1.00  0.00    -0.203 N   
ATOM     2   C10 UNL     1       1.159   0.585   1.538  1.00  0.00     0.046 A   
ATOM     3   C11 UNL     1       1.300   1.568   0.587  1.00  0.00     0.127 A   
ATOM     4   N3  UNL     1       1.371   2.788   1.210  1.00  0.00    -0.132 NA  
ATOM     5   N4  UNL     1       1.295   2.590   2.516  1.00  0.00    -0.075 NA  
ATOM     6   H12 UNL     1       1.056  -0.491   1.494  1.00  0.00     0.083 HD  
ENDROOT
BRANCH   1   7
ATOM     7   C8  UNL     1       1.048   0.730   4.089  1.00  0.00     0.151 C   
BRANCH   7   8
ATOM     8   C2  UNL     1      -0.244  -0.093   4.233  1.00  0.00    -0.046 C   
ATOM     9   C1  UNL     1      -1.502   0.739   4.082  1.00  0.00     0.042 C   
BRANCH   8  10
ATOM     10  C3  UNL     1      -0.251  -1.417   4.497  1.00  0.00     0.035 C   
BRANCH  10  11
ATOM     11  C4  UNL     1      -1.423  -2.225   4.557  1.00  0.00     0.081 A   
ATOM     12  C5  UNL     1      -1.586  -3.451   5.196  1.00  0.00     0.036 A   
ATOM     13  O1  UNL     1      -2.612  -1.936   3.925  1.00  0.00    -0.318 OA  
ATOM     14  C6  UNL     1      -2.910  -3.894   4.965  1.00  0.00     0.028 A   
ATOM     15  C7  UNL     1      -3.493  -2.931   4.184  1.00  0.00     0.136 A   
ENDBRANCH  10  11
ENDBRANCH   8  10
ENDBRANCH   7   8
BRANCH   7  16
ATOM     16  C9  UNL     1       2.386   0.094   4.533  1.00  0.00     0.185 C   
BRANCH  16  17
ATOM     17  O2  UNL     1       2.773  -1.014   3.720  1.00  0.00    -0.394 OA  
ATOM     18  H11 UNL     1       3.607  -1.361   4.089  1.00  0.00     0.210 HD  
ENDBRANCH  16  17
ENDBRANCH   7  16
ENDBRANCH   1   7
BRANCH   3  19
ATOM     19  C12 UNL     1       1.315   1.498  -0.909  1.00  0.00     0.117 C   
BRANCH  19  20
ATOM     20  N2  UNL     1       0.658   2.759  -1.427  1.00  0.00     0.249 N   
ATOM     21  H14 UNL     1      -0.228   2.848  -0.912  1.00  0.00     0.199 HD  
ATOM     22  H15 UNL     1       1.210   3.558  -1.087  1.00  0.00     0.199 HD  
BRANCH  20  23
ATOM     23  C13 UNL     1       0.375   2.888  -2.877  1.00  0.00     0.164 C   
BRANCH  23  24
ATOM     24  C14 UNL     1      -0.543   1.820  -3.401  1.00  0.00    -0.002 A   
ATOM     25  C15 UNL     1      -0.053   0.819  -4.274  1.00  0.00     0.012 A   
ATOM     26  C19 UNL     1      -1.893   1.791  -3.008  1.00  0.00     0.045 A   
ATOM     27  C16 UNL     1      -0.889  -0.200  -4.743  1.00  0.00     0.037 A   
ATOM     28  C18 UNL     1      -2.689   0.771  -3.488  1.00  0.00     0.109 A   
ATOM     29  C17 UNL     1      -2.202  -0.197  -4.330  1.00  0.00     0.108 A   
ATOM     30  O3  UNL     1      -4.006   0.595  -3.200  1.00  0.00    -0.316 OA  
ATOM     31  O4  UNL     1      -3.149  -1.105  -4.679  1.00  0.00    -0.316 OA  
ATOM     32  C20 UNL     1      -4.301  -0.588  -3.977  1.00  0.00     0.337 C   
ENDBRANCH  23  24
ENDBRANCH  20  23
ENDBRANCH  19  20
BRANCH  19  33
ATOM     33  C21 UNL     1       2.730   1.315  -1.515  1.00  0.00     0.037 C   
ATOM     34  C22 UNL     1       3.346  -0.030  -1.107  1.00  0.00     0.014 C   
ATOM     35  C23 UNL     1       3.710   2.448  -1.191  1.00  0.00     0.014 C   
ENDBRANCH  19  33
ENDBRANCH   3  19
TORSDOF 11
