REMARK SMILES C/C(=C/c1ccco1)[C@H](CO)n1cc([C@@H]([NH2+]Cc2ccc3c(c2)OCO3)C(C)C)nn1
REMARK SMILES IDX 12 1 13 2 14 3 30 4 31 5 9 7 2 8 1 9 3 10 4 11 5 12 8 13
REMARK SMILES IDX 6 14 7 15 10 16 11 17 15 19 16 20 17 23 18 24 19 25 23 26
REMARK SMILES IDX 20 27 22 28 21 29 24 30 26 31 25 32 27 33 28 34 29 35
REMARK H PARENT 13 6 11 18 16 21 16 22
ROOT
ATOM     1   N1  UNL     1      -2.510   1.718  -0.305  1.00  0.00    -0.203 N   
ATOM     2   C10 UNL     1      -1.834   0.892   0.555  1.00  0.00     0.046 A   
ATOM     3   C11 UNL     1      -0.574   1.439   0.624  1.00  0.00     0.127 A   
ATOM     4   N3  UNL     1      -0.529   2.573  -0.148  1.00  0.00    -0.132 NA  
ATOM     5   N4  UNL     1      -1.711   2.730  -0.719  1.00  0.00    -0.075 NA  
ATOM     6   H12 UNL     1      -2.294   0.013   0.986  1.00  0.00     0.083 HD  
ENDROOT
BRANCH   1   7
ATOM     7   C8  UNL     1      -3.872   1.547  -0.826  1.00  0.00     0.151 C   
BRANCH   7   8
ATOM     8   C2  UNL     1      -3.849   1.320  -2.348  1.00  0.00    -0.046 C   
ATOM     9   C1  UNL     1      -4.038   2.556  -3.203  1.00  0.00     0.042 C   
BRANCH   8  10
ATOM     10  C3  UNL     1      -3.659   0.141  -2.980  1.00  0.00     0.035 C   
BRANCH  10  11
ATOM     11  C4  UNL     1      -3.387  -1.115  -2.366  1.00  0.00     0.081 A   
ATOM     12  C5  UNL     1      -2.956  -2.285  -2.984  1.00  0.00     0.036 A   
ATOM     13  O1  UNL     1      -3.510  -1.394  -1.024  1.00  0.00    -0.318 OA  
ATOM     14  C6  UNL     1      -2.811  -3.282  -1.992  1.00  0.00     0.028 A   
ATOM     15  C7  UNL     1      -3.174  -2.687  -0.813  1.00  0.00     0.136 A   
ENDBRANCH  10  11
ENDBRANCH   8  10
ENDBRANCH   7   8
BRANCH   7  16
ATOM     16  C9  UNL     1      -4.775   2.704  -0.345  1.00  0.00     0.185 C   
BRANCH  16  17
ATOM     17  O2  UNL     1      -4.991   2.618   1.067  1.00  0.00    -0.394 OA  
ATOM     18  H11 UNL     1      -5.447   3.440   1.330  1.00  0.00     0.210 HD  
ENDBRANCH  16  17
ENDBRANCH   7  16
ENDBRANCH   1   7
BRANCH   3  19
ATOM     19  C12 UNL     1       0.665   0.948   1.295  1.00  0.00     0.117 C   
BRANCH  19  20
ATOM     20  N2  UNL     1       1.888   1.324   0.489  1.00  0.00     0.249 N   
ATOM     21  H14 UNL     1       2.741   1.145   1.022  1.00  0.00     0.199 HD  
ATOM     22  H15 UNL     1       1.823   2.339   0.333  1.00  0.00     0.199 HD  
BRANCH  20  23
ATOM     23  C13 UNL     1       2.011   0.690  -0.858  1.00  0.00     0.164 C   
BRANCH  23  24
ATOM     24  C14 UNL     1       2.276  -0.788  -0.792  1.00  0.00    -0.002 A   
ATOM     25  C15 UNL     1       3.572  -1.272  -0.488  1.00  0.00     0.012 A   
ATOM     26  C19 UNL     1       1.228  -1.704  -1.009  1.00  0.00     0.045 A   
ATOM     27  C16 UNL     1       3.826  -2.647  -0.408  1.00  0.00     0.037 A   
ATOM     28  C18 UNL     1       1.512  -3.053  -0.915  1.00  0.00     0.109 A   
ATOM     29  C17 UNL     1       2.775  -3.511  -0.626  1.00  0.00     0.108 A   
ATOM     30  O3  UNL     1       0.619  -4.067  -1.083  1.00  0.00    -0.316 OA  
ATOM     31  O4  UNL     1       2.840  -4.869  -0.588  1.00  0.00    -0.316 OA  
ATOM     32  C20 UNL     1       1.480  -5.219  -0.926  1.00  0.00     0.337 C   
ENDBRANCH  23  24
ENDBRANCH  20  23
ENDBRANCH  19  20
BRANCH  19  33
ATOM     33  C21 UNL     1       0.796   1.469   2.750  1.00  0.00     0.037 C   
ATOM     34  C22 UNL     1       1.083   2.971   2.858  1.00  0.00     0.014 C   
ATOM     35  C23 UNL     1       1.856   0.683   3.533  1.00  0.00     0.014 C   
ENDBRANCH  19  33
ENDBRANCH   3  19
TORSDOF 11
