REMARK SMILES C/C(=C/c1ccco1)[C@@H](CO)n1cc([C@@H]([NH2+]Cc2ccc3c(c2)OCO3)C(C)C)nn1
REMARK SMILES IDX 12 1 13 2 14 3 30 4 31 5 9 7 2 8 1 9 3 10 4 11 5 12 8 13
REMARK SMILES IDX 6 14 7 15 10 16 11 17 15 19 16 20 17 23 18 24 19 25 23 26
REMARK SMILES IDX 20 27 22 28 21 29 24 30 26 31 25 32 27 33 28 34 29 35
REMARK H PARENT 13 6 11 18 16 21 16 22
ROOT
ATOM     1   N1  UNL     1      -1.591   1.907   0.133  1.00  0.00    -0.203 N   
ATOM     2   C10 UNL     1      -0.544   1.708  -0.730  1.00  0.00     0.046 A   
ATOM     3   C11 UNL     1      -0.115   0.431  -0.451  1.00  0.00     0.127 A   
ATOM     4   N3  UNL     1      -0.893  -0.099   0.547  1.00  0.00    -0.132 NA  
ATOM     5   N4  UNL     1      -1.785   0.811   0.900  1.00  0.00    -0.075 NA  
ATOM     6   H12 UNL     1      -0.222   2.471  -1.426  1.00  0.00     0.083 HD  
ENDROOT
BRANCH   1   7
ATOM     7   C8  UNL     1      -2.415   3.112   0.278  1.00  0.00     0.151 C   
BRANCH   7   8
ATOM     8   C2  UNL     1      -3.780   2.938  -0.397  1.00  0.00    -0.046 C   
ATOM     9   C1  UNL     1      -4.779   2.076   0.341  1.00  0.00     0.042 C   
BRANCH   8  10
ATOM     10  C3  UNL     1      -4.168   3.503  -1.562  1.00  0.00     0.035 C   
BRANCH  10  11
ATOM     11  C4  UNL     1      -3.359   4.320  -2.402  1.00  0.00     0.081 A   
ATOM     12  C5  UNL     1      -3.784   5.268  -3.328  1.00  0.00     0.036 A   
ATOM     13  O1  UNL     1      -1.984   4.277  -2.470  1.00  0.00    -0.318 OA  
ATOM     14  C6  UNL     1      -2.639   5.830  -3.941  1.00  0.00     0.028 A   
ATOM     15  C7  UNL     1      -1.565   5.192  -3.379  1.00  0.00     0.136 A   
ENDBRANCH  10  11
ENDBRANCH   8  10
ENDBRANCH   7   8
BRANCH   7  16
ATOM     16  C9  UNL     1      -2.499   3.568   1.749  1.00  0.00     0.185 C   
BRANCH  16  17
ATOM     17  O2  UNL     1      -1.232   4.071   2.186  1.00  0.00    -0.394 OA  
ATOM     18  H11 UNL     1      -1.366   4.437   3.080  1.00  0.00     0.210 HD  
ENDBRANCH  16  17
ENDBRANCH   7  16
ENDBRANCH   1   7
BRANCH   3  19
ATOM     19  C12 UNL     1       1.016  -0.368  -1.008  1.00  0.00     0.117 C   
BRANCH  19  20
ATOM     20  N2  UNL     1       1.504  -1.362   0.012  1.00  0.00     0.249 N   
ATOM     21  H14 UNL     1       2.054  -2.114  -0.412  1.00  0.00     0.199 HD  
ATOM     22  H15 UNL     1       0.666  -1.805   0.415  1.00  0.00     0.199 HD  
BRANCH  20  23
ATOM     23  C13 UNL     1       2.272  -0.778   1.147  1.00  0.00     0.164 C   
BRANCH  23  24
ATOM     24  C14 UNL     1       2.694  -1.858   2.104  1.00  0.00    -0.002 A   
ATOM     25  C15 UNL     1       3.953  -2.488   1.964  1.00  0.00     0.012 A   
ATOM     26  C19 UNL     1       1.812  -2.285   3.113  1.00  0.00     0.045 A   
ATOM     27  C16 UNL     1       4.336  -3.522   2.824  1.00  0.00     0.037 A   
ATOM     28  C18 UNL     1       2.221  -3.307   3.943  1.00  0.00     0.109 A   
ATOM     29  C17 UNL     1       3.447  -3.909   3.804  1.00  0.00     0.108 A   
ATOM     30  O3  UNL     1       1.495  -3.837   4.965  1.00  0.00    -0.316 OA  
ATOM     31  O4  UNL     1       3.648  -4.893   4.720  1.00  0.00    -0.316 OA  
ATOM     32  C20 UNL     1       2.413  -4.835   5.465  1.00  0.00     0.337 C   
ENDBRANCH  23  24
ENDBRANCH  20  23
ENDBRANCH  19  20
BRANCH  19  33
ATOM     33  C21 UNL     1       0.633  -1.091  -2.326  1.00  0.00     0.037 C   
ATOM     34  C22 UNL     1       1.867  -1.643  -3.050  1.00  0.00     0.014 C   
ATOM     35  C23 UNL     1      -0.400  -2.209  -2.145  1.00  0.00     0.014 C   
ENDBRANCH  19  33
ENDBRANCH   3  19
TORSDOF 11
