REMARK SMILES CC(C)[C@H]([NH2+]Cc1ccc2c(c1)OCO2)c1cn(Cc2cc(Cl)ccn2)nn1
REMARK SMILES IDX 16 1 17 2 18 3 27 4 28 5 4 7 2 8 1 9 3 10 5 11 6 14 7 15
REMARK SMILES IDX 8 16 12 17 9 18 11 19 10 20 13 21 15 22 14 23 19 24 20 25
REMARK SMILES IDX 21 26 26 27 22 28 25 29 24 30 23 31
REMARK H PARENT 17 6 5 12 5 13
ROOT
ATOM     1   C13 UNL     1       1.210   1.731   0.965  1.00  0.00     0.127 A   
ATOM     2   C14 UNL     1       2.150   1.397   1.914  1.00  0.00     0.046 A   
ATOM     3   N2  UNL     1       1.518   1.633   3.104  1.00  0.00    -0.206 N   
ATOM     4   N4  UNL     1       0.262   2.075   2.902  1.00  0.00    -0.076 NA  
ATOM     5   N5  UNL     1       0.062   2.142   1.596  1.00  0.00    -0.132 NA  
ATOM     6   H18 UNL     1       3.161   1.015   1.866  1.00  0.00     0.083 HD  
ENDROOT
BRANCH   1   7
ATOM     7   C4  UNL     1       1.239   1.648  -0.528  1.00  0.00     0.117 C   
BRANCH   7   8
ATOM     8   C2  UNL     1       1.768   2.927  -1.226  1.00  0.00     0.037 C   
ATOM     9   C1  UNL     1       3.247   3.175  -0.910  1.00  0.00     0.014 C   
ATOM     10  C3  UNL     1       0.955   4.191  -0.923  1.00  0.00     0.014 C   
ENDBRANCH   7   8
BRANCH   7  11
ATOM     11  N1  UNL     1      -0.147   1.359  -1.050  1.00  0.00     0.249 N   
ATOM     12  H9  UNL     1      -0.793   1.979  -0.538  1.00  0.00     0.199 HD  
ATOM     13  H10 UNL     1      -0.236   1.603  -2.042  1.00  0.00     0.199 HD  
BRANCH  11  14
ATOM     14  C5  UNL     1      -0.626  -0.036  -0.844  1.00  0.00     0.164 C   
BRANCH  14  15
ATOM     15  C6  UNL     1      -2.047  -0.175  -1.313  1.00  0.00    -0.002 A   
ATOM     16  C7  UNL     1      -3.115   0.132  -0.436  1.00  0.00     0.012 A   
ATOM     17  C11 UNL     1      -2.324  -0.553  -2.637  1.00  0.00     0.045 A   
ATOM     18  C8  UNL     1      -4.444   0.051  -0.867  1.00  0.00     0.037 A   
ATOM     19  C10 UNL     1      -3.645  -0.622  -3.029  1.00  0.00     0.109 A   
ATOM     20  C9  UNL     1      -4.675  -0.329  -2.170  1.00  0.00     0.108 A   
ATOM     21  O1  UNL     1      -4.083  -0.968  -4.268  1.00  0.00    -0.316 OA  
ATOM     22  O2  UNL     1      -5.892  -0.457  -2.759  1.00  0.00    -0.316 OA  
ATOM     23  C12 UNL     1      -5.515  -0.887  -4.084  1.00  0.00     0.337 C   
ENDBRANCH  14  15
ENDBRANCH  11  14
ENDBRANCH   7  11
ENDBRANCH   1   7
BRANCH   3  24
ATOM     24  C15 UNL     1       2.039   1.462   4.447  1.00  0.00     0.190 C   
BRANCH  24  25
ATOM     25  C16 UNL     1       1.893   0.029   4.879  1.00  0.00     0.061 A   
ATOM     26  C17 UNL     1       0.748  -0.402   5.539  1.00  0.00     0.046 A   
ATOM     27  N3  UNL     1       2.911  -0.815   4.568  1.00  0.00    -0.259 NA  
ATOM     28  C18 UNL     1       0.666  -1.739   5.907  1.00  0.00     0.044 A   
ATOM     29  C20 UNL     1       2.800  -2.107   4.956  1.00  0.00     0.113 A   
ATOM     30  C19 UNL     1       1.703  -2.614   5.622  1.00  0.00     0.040 A   
ATOM     31  CL1 UNL     1      -0.737  -2.314   6.719  1.00  0.00    -0.084 Cl  
ENDBRANCH  24  25
ENDBRANCH   3  24
TORSDOF 7
