REMARK SMILES FC1(F)Oc2cccc(-n3cc([C@@H]([NH2+]Cc4ccc5c(c4)OCO5)C4CCCC4)nn3)c2O1
REMARK SMILES IDX 13 1 12 2 10 3 11 4 31 5 30 6 9 7 2 8 4 9 33 10 5 11 32 12
REMARK SMILES IDX 6 13 7 14 8 15 1 16 3 17 14 18 15 21 16 22 17 23 21 24 18 25
REMARK SMILES IDX 20 26 19 27 22 28 24 29 23 30 25 31 26 32 29 33 27 34 28 35
REMARK H PARENT 14 19 14 20
ROOT
ATOM     1   C9  UNL     1      -0.606   0.249  -1.230  1.00  0.00     0.117 C   
ENDROOT
BRANCH   1   2
ATOM     2   C8  UNL     1      -0.630   0.421   0.256  1.00  0.00     0.127 A   
ATOM     3   N1  UNL     1      -0.960   0.978   2.352  1.00  0.00    -0.178 N   
ATOM     4   C7  UNL     1      -1.358   1.268   1.061  1.00  0.00     0.135 A   
ATOM     5   N4  UNL     1      -0.001   0.015   2.298  1.00  0.00    -0.071 NA  
ATOM     6   N3  UNL     1       0.202  -0.327   1.037  1.00  0.00    -0.131 NA  
BRANCH   3   7
ATOM     7   C6  UNL     1      -1.392   1.523   3.585  1.00  0.00     0.091 A   
ATOM     8   C1  UNL     1      -3.776   4.121   3.386  1.00  0.00     0.495 C   
ATOM     9   O1  UNL     1      -3.659   4.025   4.805  1.00  0.00    -0.255 OA  
ATOM     10  O4  UNL     1      -2.979   3.173   2.658  1.00  0.00    -0.253 OA  
ATOM     11  C2  UNL     1      -2.731   3.035   4.904  1.00  0.00     0.117 A   
ATOM     12  C23 UNL     1      -2.336   2.537   3.675  1.00  0.00     0.138 A   
ATOM     13  C3  UNL     1      -2.219   2.561   6.093  1.00  0.00     0.037 A   
ATOM     14  C4  UNL     1      -1.268   1.545   6.030  1.00  0.00     0.005 A   
ATOM     15  C5  UNL     1      -0.855   1.027   4.789  1.00  0.00     0.029 A   
ATOM     16  F1  UNL     1      -5.072   3.943   3.035  1.00  0.00    -0.147 F   
ATOM     17  F2  UNL     1      -3.405   5.364   2.997  1.00  0.00    -0.147 F   
ENDBRANCH   3   7
ENDBRANCH   1   2
BRANCH   1  18
ATOM     18  N2  UNL     1       0.790  -0.105  -1.680  1.00  0.00     0.249 N   
ATOM     19  H6  UNL     1       0.799  -0.477  -2.634  1.00  0.00     0.199 HD  
ATOM     20  H7  UNL     1       1.119  -0.869  -1.071  1.00  0.00     0.199 HD  
BRANCH  18  21
ATOM     21  C10 UNL     1       1.789   0.998  -1.599  1.00  0.00     0.164 C   
BRANCH  21  22
ATOM     22  C11 UNL     1       3.141   0.510  -2.039  1.00  0.00    -0.002 A   
ATOM     23  C12 UNL     1       3.548   0.643  -3.389  1.00  0.00     0.012 A   
ATOM     24  C16 UNL     1       3.987  -0.136  -1.120  1.00  0.00     0.045 A   
ATOM     25  C13 UNL     1       4.786   0.148  -3.816  1.00  0.00     0.037 A   
ATOM     26  C15 UNL     1       5.199  -0.611  -1.575  1.00  0.00     0.109 A   
ATOM     27  C14 UNL     1       5.587  -0.476  -2.885  1.00  0.00     0.108 A   
ATOM     28  O2  UNL     1       6.127  -1.256  -0.823  1.00  0.00    -0.316 OA  
ATOM     29  O3  UNL     1       6.807  -1.020  -3.124  1.00  0.00    -0.316 OA  
ATOM     30  C17 UNL     1       7.162  -1.489  -1.805  1.00  0.00     0.337 C   
ENDBRANCH  21  22
ENDBRANCH  18  21
ENDBRANCH   1  18
BRANCH   1  31
ATOM     31  C18 UNL     1      -1.568  -0.865  -1.692  1.00  0.00     0.043 C   
ATOM     32  C19 UNL     1      -3.039  -0.563  -1.378  1.00  0.00     0.010 C   
ATOM     33  C22 UNL     1      -1.617  -1.077  -3.208  1.00  0.00     0.010 C   
ATOM     34  C20 UNL     1      -3.837  -1.482  -2.298  1.00  0.00     0.001 C   
ATOM     35  C21 UNL     1      -2.891  -1.882  -3.427  1.00  0.00     0.001 C   
ENDBRANCH   1  31
TORSDOF 6
