REMARK SMILES Cc1csc(Cn2cc([C@H](CC(C)C)[NH2+]Cc3ccc4c(c3)OCO4)nn2)c1
REMARK SMILES IDX 7 1 8 2 9 3 26 4 27 5 6 7 5 8 2 9 3 10 28 11 4 12 1 13 10 14
REMARK SMILES IDX 11 15 12 16 13 17 14 18 15 19 16 22 17 23 18 24 22 25 19 26
REMARK SMILES IDX 21 27 20 28 23 29 25 30 24 31
REMARK H PARENT 8 6 15 20 15 21
ROOT
ATOM     1   N1  UNL     1      -0.029   0.747  -2.137  1.00  0.00    -0.207 N   
ATOM     2   C6  UNL     1       0.354  -0.292  -1.331  1.00  0.00     0.046 A   
ATOM     3   C7  UNL     1      -0.091   0.074  -0.080  1.00  0.00     0.127 A   
ATOM     4   N3  UNL     1      -0.640   1.328  -0.149  1.00  0.00    -0.132 NA  
ATOM     5   N4  UNL     1      -0.573   1.739  -1.404  1.00  0.00    -0.076 NA  
ATOM     6   H7  UNL     1       0.838  -1.177  -1.720  1.00  0.00     0.083 HD  
ENDROOT
BRANCH   1   7
ATOM     7   C5  UNL     1       0.118   0.890  -3.579  1.00  0.00     0.176 C   
BRANCH   7   8
ATOM     8   C4  UNL     1      -0.395  -0.313  -4.311  1.00  0.00     0.009 A   
ATOM     9   C2  UNL     1      -0.503  -2.278  -5.589  1.00  0.00    -0.044 A   
ATOM     10  C3  UNL     1      -1.835  -2.040  -5.313  1.00  0.00     0.049 A   
ATOM     11  C21 UNL     1       0.327  -1.267  -5.004  1.00  0.00     0.016 A   
ATOM     12  S1  UNL     1      -2.076  -0.633  -4.378  1.00  0.00    -0.100 S   
ATOM     13  C1  UNL     1      -0.004  -3.427  -6.401  1.00  0.00     0.045 C   
ENDBRANCH   7   8
ENDBRANCH   1   7
BRANCH   3  14
ATOM     14  C8  UNL     1      -0.034  -0.628   1.237  1.00  0.00     0.114 C   
BRANCH  14  15
ATOM     15  C9  UNL     1      -1.274  -1.506   1.495  1.00  0.00     0.064 C   
BRANCH  15  16
ATOM     16  C10 UNL     1      -1.463  -2.691   0.523  1.00  0.00    -0.012 C   
ATOM     17  C11 UNL     1      -2.761  -3.433   0.860  1.00  0.00     0.007 C   
ATOM     18  C12 UNL     1      -0.288  -3.669   0.559  1.00  0.00     0.007 C   
ENDBRANCH  15  16
ENDBRANCH  14  15
BRANCH  14  19
ATOM     19  N2  UNL     1       0.020   0.389   2.354  1.00  0.00     0.249 N   
ATOM     20  H18 UNL     1      -0.695   1.101   2.137  1.00  0.00     0.199 HD  
ATOM     21  H19 UNL     1      -0.247  -0.021   3.254  1.00  0.00     0.199 HD  
BRANCH  19  22
ATOM     22  C13 UNL     1       1.319   1.102   2.506  1.00  0.00     0.164 C   
BRANCH  22  23
ATOM     23  C14 UNL     1       1.230   2.131   3.597  1.00  0.00    -0.002 A   
ATOM     24  C15 UNL     1       1.670   1.831   4.907  1.00  0.00     0.012 A   
ATOM     25  C19 UNL     1       0.660   3.389   3.329  1.00  0.00     0.045 A   
ATOM     26  C16 UNL     1       1.556   2.772   5.936  1.00  0.00     0.037 A   
ATOM     27  C18 UNL     1       0.561   4.292   4.366  1.00  0.00     0.109 A   
ATOM     28  C17 UNL     1       0.997   3.993   5.633  1.00  0.00     0.108 A   
ATOM     29  O1  UNL     1       0.038   5.543   4.278  1.00  0.00    -0.316 OA  
ATOM     30  O2  UNL     1       0.804   5.018   6.503  1.00  0.00    -0.316 OA  
ATOM     31  C20 UNL     1       0.214   6.009   5.635  1.00  0.00     0.337 C   
ENDBRANCH  22  23
ENDBRANCH  19  22
ENDBRANCH  14  19
ENDBRANCH   3  14
TORSDOF 8
