REMARK SMILES CC(C)[C@H]([NH2+]Cc1ccc2c(c1)OCO2)c1cn([C@@H](C)c2ccc(F)nc2)nn1
REMARK SMILES IDX 16 1 17 2 18 3 28 4 29 5 4 7 2 8 1 9 3 10 5 11 6 14 7 15
REMARK SMILES IDX 8 16 12 17 9 18 11 19 10 20 13 21 15 22 14 23 19 24 20 25
REMARK SMILES IDX 21 26 22 27 27 28 23 29 26 30 24 31 25 32
REMARK H PARENT 17 6 5 12 5 13
ROOT
ATOM     1   C13 UNL     1       0.914   1.495   0.845  1.00  0.00     0.127 A   
ATOM     2   C14 UNL     1       2.128   1.893   0.327  1.00  0.00     0.046 A   
ATOM     3   N2  UNL     1       2.901   0.762   0.382  1.00  0.00    -0.205 N   
ATOM     4   N4  UNL     1       2.196  -0.270   0.888  1.00  0.00    -0.075 NA  
ATOM     5   N5  UNL     1       0.983   0.165   1.175  1.00  0.00    -0.132 NA  
ATOM     6   H18 UNL     1       2.496   2.827  -0.073  1.00  0.00     0.083 HD  
ENDROOT
BRANCH   1   7
ATOM     7   C4  UNL     1      -0.383   2.220   1.011  1.00  0.00     0.117 C   
BRANCH   7   8
ATOM     8   C2  UNL     1      -0.563   2.890   2.397  1.00  0.00     0.037 C   
ATOM     9   C1  UNL     1      -0.506   1.915   3.580  1.00  0.00     0.014 C   
ATOM     10  C3  UNL     1       0.449   4.022   2.611  1.00  0.00     0.014 C   
ENDBRANCH   7   8
BRANCH   7  11
ATOM     11  N1  UNL     1      -1.530   1.264   0.788  1.00  0.00     0.249 N   
ATOM     12  H9  UNL     1      -2.396   1.605   1.218  1.00  0.00     0.199 HD  
ATOM     13  H10 UNL     1      -1.289   0.390   1.279  1.00  0.00     0.199 HD  
BRANCH  11  14
ATOM     14  C5  UNL     1      -1.792   0.908  -0.633  1.00  0.00     0.164 C   
BRANCH  14  15
ATOM     15  C6  UNL     1      -2.887  -0.116  -0.727  1.00  0.00    -0.002 A   
ATOM     16  C7  UNL     1      -2.568  -1.494  -0.780  1.00  0.00     0.012 A   
ATOM     17  C11 UNL     1      -4.235   0.284  -0.710  1.00  0.00     0.045 A   
ATOM     18  C8  UNL     1      -3.576  -2.463  -0.833  1.00  0.00     0.037 A   
ATOM     19  C10 UNL     1      -5.202  -0.697  -0.756  1.00  0.00     0.109 A   
ATOM     20  C9  UNL     1      -4.883  -2.032  -0.818  1.00  0.00     0.108 A   
ATOM     21  O1  UNL     1      -6.543  -0.483  -0.730  1.00  0.00    -0.316 OA  
ATOM     22  O2  UNL     1      -5.984  -2.825  -0.851  1.00  0.00    -0.316 OA  
ATOM     23  C12 UNL     1      -7.037  -1.839  -0.828  1.00  0.00     0.337 C   
ENDBRANCH  14  15
ENDBRANCH  11  14
ENDBRANCH   7  11
ENDBRANCH   1   7
BRANCH   3  24
ATOM     24  C15 UNL     1       4.271   0.589  -0.103  1.00  0.00     0.128 C   
ATOM     25  C16 UNL     1       5.094  -0.386   0.742  1.00  0.00     0.036 C   
BRANCH  24  26
ATOM     26  C17 UNL     1       4.260   0.211  -1.571  1.00  0.00    -0.007 A   
ATOM     27  C18 UNL     1       4.897   1.010  -2.528  1.00  0.00     0.012 A   
ATOM     28  C21 UNL     1       3.619  -0.940  -2.029  1.00  0.00     0.120 A   
ATOM     29  C19 UNL     1       4.856   0.642  -3.870  1.00  0.00     0.061 A   
ATOM     30  N3  UNL     1       3.548  -1.305  -3.326  1.00  0.00    -0.228 NA  
ATOM     31  C20 UNL     1       4.176  -0.511  -4.215  1.00  0.00     0.212 A   
ATOM     32  F1  UNL     1       4.120  -0.860  -5.506  1.00  0.00    -0.185 F   
ENDBRANCH  24  26
ENDBRANCH   3  24
TORSDOF 7
