REMARK SMILES CC(C)[C@H]([NH2+]Cc1ccc2c(c1)OCO2)c1cn([C@H](C)c2ccc(F)nc2)nn1
REMARK SMILES IDX 16 1 17 2 18 3 28 4 29 5 4 7 2 8 1 9 3 10 5 11 6 14 7 15
REMARK SMILES IDX 8 16 12 17 9 18 11 19 10 20 13 21 15 22 14 23 19 24 20 25
REMARK SMILES IDX 21 26 22 27 27 28 23 29 26 30 24 31 25 32
REMARK H PARENT 17 6 5 12 5 13
ROOT
ATOM     1   C13 UNL     1       0.089   1.585   1.278  1.00  0.00     0.127 A   
ATOM     2   C14 UNL     1       1.099   2.183   0.557  1.00  0.00     0.046 A   
ATOM     3   N2  UNL     1       2.106   2.350   1.472  1.00  0.00    -0.205 N   
ATOM     4   N4  UNL     1       1.722   1.911   2.687  1.00  0.00    -0.075 NA  
ATOM     5   N5  UNL     1       0.488   1.448   2.582  1.00  0.00    -0.132 NA  
ATOM     6   H18 UNL     1       1.213   2.444  -0.486  1.00  0.00     0.083 HD  
ENDROOT
BRANCH   1   7
ATOM     7   C4  UNL     1      -1.227   1.029   0.841  1.00  0.00     0.117 C   
BRANCH   7   8
ATOM     8   C2  UNL     1      -2.373   2.071   0.944  1.00  0.00     0.037 C   
ATOM     9   C1  UNL     1      -3.629   1.604   0.197  1.00  0.00     0.014 C   
ATOM     10  C3  UNL     1      -2.745   2.458   2.381  1.00  0.00     0.014 C   
ENDBRANCH   7   8
BRANCH   7  11
ATOM     11  N1  UNL     1      -1.570  -0.212   1.632  1.00  0.00     0.249 N   
ATOM     12  H9  UNL     1      -1.478   0.041   2.626  1.00  0.00     0.199 HD  
ATOM     13  H10 UNL     1      -2.543  -0.484   1.474  1.00  0.00     0.199 HD  
BRANCH  11  14
ATOM     14  C5  UNL     1      -0.691  -1.403   1.409  1.00  0.00     0.164 C   
BRANCH  14  15
ATOM     15  C6  UNL     1      -0.725  -1.913  -0.005  1.00  0.00    -0.002 A   
ATOM     16  C7  UNL     1       0.433  -1.832  -0.819  1.00  0.00     0.012 A   
ATOM     17  C11 UNL     1      -1.907  -2.459  -0.536  1.00  0.00     0.045 A   
ATOM     18  C8  UNL     1       0.411  -2.279  -2.145  1.00  0.00     0.037 A   
ATOM     19  C10 UNL     1      -1.893  -2.888  -1.847  1.00  0.00     0.109 A   
ATOM     20  C9  UNL     1      -0.768  -2.799  -2.631  1.00  0.00     0.108 A   
ATOM     21  O1  UNL     1      -2.950  -3.429  -2.509  1.00  0.00    -0.316 OA  
ATOM     22  O2  UNL     1      -0.976  -3.275  -3.886  1.00  0.00    -0.316 OA  
ATOM     23  C12 UNL     1      -2.347  -3.719  -3.792  1.00  0.00     0.337 C   
ENDBRANCH  14  15
ENDBRANCH  11  14
ENDBRANCH   7  11
ENDBRANCH   1   7
BRANCH   3  24
ATOM     24  C15 UNL     1       3.499   2.746   1.235  1.00  0.00     0.128 C   
ATOM     25  C16 UNL     1       3.567   4.223   0.842  1.00  0.00     0.036 C   
BRANCH  24  26
ATOM     26  C17 UNL     1       4.137   1.759   0.271  1.00  0.00    -0.007 A   
ATOM     27  C18 UNL     1       4.614   2.097  -1.002  1.00  0.00     0.012 A   
ATOM     28  C21 UNL     1       4.223   0.411   0.636  1.00  0.00     0.120 A   
ATOM     29  C19 UNL     1       5.129   1.103  -1.834  1.00  0.00     0.061 A   
ATOM     30  N3  UNL     1       4.683  -0.574  -0.164  1.00  0.00    -0.228 NA  
ATOM     31  C20 UNL     1       5.139  -0.202  -1.377  1.00  0.00     0.212 A   
ATOM     32  F1  UNL     1       5.595  -1.165  -2.191  1.00  0.00    -0.185 F   
ENDBRANCH  24  26
ENDBRANCH   3  24
TORSDOF 7
