REMARK SMILES CC(C)(C)[C@H]([NH2+]Cc1ccc2c(c1)OCO2)c1cn(Cc2ncoc2C(F)(F)F)nn1
REMARK SMILES IDX 17 1 18 2 19 3 30 4 31 5 5 7 2 8 1 9 3 10 4 11 6 12 7 15
REMARK SMILES IDX 8 16 9 17 13 18 10 19 12 20 11 21 14 22 16 23 15 24 20 25
REMARK SMILES IDX 21 26 22 27 25 28 23 29 24 30 26 31 27 32 28 33 29 34
REMARK H PARENT 18 6 6 13 6 14
ROOT
ATOM     1   C14 UNL     1      -1.509   0.506   0.887  1.00  0.00     0.127 A   
ATOM     2   C15 UNL     1      -1.284   1.399   1.910  1.00  0.00     0.046 A   
ATOM     3   N2  UNL     1      -0.636   0.660   2.861  1.00  0.00    -0.206 N   
ATOM     4   N4  UNL     1      -0.453  -0.606   2.442  1.00  0.00    -0.076 NA  
ATOM     5   N5  UNL     1      -0.990  -0.717   1.239  1.00  0.00    -0.132 NA  
ATOM     6   H20 UNL     1      -1.504   2.450   2.046  1.00  0.00     0.083 HD  
ENDROOT
BRANCH   1   7
ATOM     7   C5  UNL     1      -2.123   0.673  -0.471  1.00  0.00     0.120 C   
BRANCH   7   8
ATOM     8   C2  UNL     1      -3.672   0.434  -0.515  1.00  0.00     0.010 C   
ATOM     9   C1  UNL     1      -4.384   1.375   0.482  1.00  0.00     0.017 C   
ATOM     10  C3  UNL     1      -4.059  -1.019  -0.174  1.00  0.00     0.017 C   
ATOM     11  C4  UNL     1      -4.228   0.768  -1.920  1.00  0.00     0.017 C   
ENDBRANCH   7   8
BRANCH   7  12
ATOM     12  N1  UNL     1      -1.418  -0.260  -1.428  1.00  0.00     0.250 N   
ATOM     13  H11 UNL     1      -1.993  -0.518  -2.235  1.00  0.00     0.199 HD  
ATOM     14  H12 UNL     1      -1.251  -1.139  -0.909  1.00  0.00     0.199 HD  
BRANCH  12  15
ATOM     15  C6  UNL     1      -0.092   0.215  -1.912  1.00  0.00     0.164 C   
BRANCH  15  16
ATOM     16  C7  UNL     1       0.538  -0.809  -2.811  1.00  0.00    -0.002 A   
ATOM     17  C8  UNL     1       1.325  -1.849  -2.261  1.00  0.00     0.012 A   
ATOM     18  C12 UNL     1       0.304  -0.775  -4.196  1.00  0.00     0.045 A   
ATOM     19  C9  UNL     1       1.884  -2.836  -3.079  1.00  0.00     0.037 A   
ATOM     20  C11 UNL     1       0.867  -1.765  -4.973  1.00  0.00     0.109 A   
ATOM     21  C10 UNL     1       1.636  -2.765  -4.432  1.00  0.00     0.108 A   
ATOM     22  O1  UNL     1       0.734  -1.884  -6.320  1.00  0.00    -0.316 OA  
ATOM     23  O2  UNL     1       2.090  -3.637  -5.370  1.00  0.00    -0.316 OA  
ATOM     24  C13 UNL     1       1.531  -3.063  -6.573  1.00  0.00     0.337 C   
ENDBRANCH  15  16
ENDBRANCH  12  15
ENDBRANCH   7  12
ENDBRANCH   1   7
BRANCH   3  25
ATOM     25  C16 UNL     1      -0.145   1.087   4.159  1.00  0.00     0.193 C   
BRANCH  25  26
ATOM     26  C17 UNL     1       1.310   1.369   4.076  1.00  0.00     0.098 A   
ATOM     27  N3  UNL     1       1.771   2.610   3.679  1.00  0.00    -0.232 NA  
ATOM     28  C19 UNL     1       2.386   0.541   4.340  1.00  0.00     0.187 A   
ATOM     29  C18 UNL     1       3.079   2.494   3.736  1.00  0.00     0.247 A   
ATOM     30  O3  UNL     1       3.529   1.269   4.116  1.00  0.00    -0.291 OA  
BRANCH  28  31
ATOM     31  C20 UNL     1       2.516  -0.867   4.769  1.00  0.00     0.440 C   
ATOM     32  F1  UNL     1       1.435  -1.257   5.494  1.00  0.00    -0.164 F   
ATOM     33  F2  UNL     1       3.606  -1.081   5.543  1.00  0.00    -0.164 F   
ATOM     34  F3  UNL     1       2.602  -1.708   3.707  1.00  0.00    -0.164 F   
ENDBRANCH  28  31
ENDBRANCH  25  26
ENDBRANCH   3  25
TORSDOF 8
