REMARK SMILES Cc1nc(-n2cc([C@@H]([NH2+]Cc3ccc4c(c3)OCO4)C3CCCC3)nn2)sc1C
REMARK SMILES IDX 8 1 7 2 5 3 6 4 26 5 25 6 4 7 2 8 3 9 28 10 27 11 1 12 29 13
REMARK SMILES IDX 9 14 10 17 11 18 12 19 16 20 13 21 15 22 14 23 17 24 19 25
REMARK SMILES IDX 18 26 20 27 21 28 24 29 22 30 23 31
REMARK H PARENT 9 15 9 16
ROOT
ATOM     1   C6  UNL     1      -1.380  -0.368   0.281  1.00  0.00     0.117 C   
ENDROOT
BRANCH   1   2
ATOM     2   C5  UNL     1       0.021  -0.274   0.801  1.00  0.00     0.128 A   
ATOM     3   N2  UNL     1       1.939  -0.428   1.843  1.00  0.00    -0.156 N   
ATOM     4   C4  UNL     1       0.647  -0.919   1.841  1.00  0.00     0.137 A   
ATOM     5   N5  UNL     1       2.061   0.499   0.857  1.00  0.00    -0.069 NA  
ATOM     6   N4  UNL     1       0.906   0.590   0.214  1.00  0.00    -0.131 NA  
BRANCH   3   7
ATOM     7   C3  UNL     1       2.990  -0.764   2.689  1.00  0.00     0.185 A   
ATOM     8   C2  UNL     1       4.073  -1.776   4.319  1.00  0.00     0.050 A   
ATOM     9   N1  UNL     1       2.858  -1.643   3.658  1.00  0.00    -0.229 NA  
ATOM     10  C20 UNL     1       5.095  -0.979   3.824  1.00  0.00     0.011 A   
ATOM     11  S1  UNL     1       4.516  -0.045   2.502  1.00  0.00    -0.055 S   
ATOM     12  C1  UNL     1       4.160  -2.734   5.456  1.00  0.00     0.068 C   
ATOM     13  C21 UNL     1       6.512  -0.854   4.264  1.00  0.00     0.054 C   
ENDBRANCH   3   7
ENDBRANCH   1   2
BRANCH   1  14
ATOM     14  N3  UNL     1      -1.774   0.919  -0.391  1.00  0.00     0.249 N   
ATOM     15  H6  UNL     1      -0.980   1.204  -0.985  1.00  0.00     0.199 HD  
ATOM     16  H7  UNL     1      -2.571   0.799  -1.022  1.00  0.00     0.199 HD  
BRANCH  14  17
ATOM     17  C7  UNL     1      -2.062   2.056   0.528  1.00  0.00     0.164 C   
BRANCH  17  18
ATOM     18  C8  UNL     1      -2.409   3.287  -0.261  1.00  0.00    -0.002 A   
ATOM     19  C9  UNL     1      -1.381   4.098  -0.801  1.00  0.00     0.012 A   
ATOM     20  C13 UNL     1      -3.753   3.611  -0.513  1.00  0.00     0.045 A   
ATOM     21  C10 UNL     1      -1.687   5.222  -1.577  1.00  0.00     0.037 A   
ATOM     22  C12 UNL     1      -4.019   4.727  -1.280  1.00  0.00     0.109 A   
ATOM     23  C11 UNL     1      -3.016   5.509  -1.798  1.00  0.00     0.108 A   
ATOM     24  O1  UNL     1      -5.255   5.176  -1.617  1.00  0.00    -0.316 OA  
ATOM     25  O2  UNL     1      -3.495   6.551  -2.526  1.00  0.00    -0.316 OA  
ATOM     26  C14 UNL     1      -4.919   6.353  -2.387  1.00  0.00     0.337 C   
ENDBRANCH  17  18
ENDBRANCH  14  17
ENDBRANCH   1  14
BRANCH   1  27
ATOM     27  C15 UNL     1      -1.541  -1.562  -0.680  1.00  0.00     0.043 C   
ATOM     28  C16 UNL     1      -0.853  -1.437  -2.042  1.00  0.00     0.010 C   
ATOM     29  C19 UNL     1      -2.985  -1.881  -1.079  1.00  0.00     0.010 C   
ATOM     30  C17 UNL     1      -1.451  -2.583  -2.851  1.00  0.00     0.001 C   
ATOM     31  C18 UNL     1      -2.847  -2.823  -2.275  1.00  0.00     0.001 C   
ENDBRANCH   1  27
TORSDOF 6
