REMARK SMILES COc1ccc(Cn2cc([C@@H]([NH2+]Cc3ccc4c(c3)OCO4)C3CCCCC3)nn2)cc1O
REMARK SMILES IDX 8 1 9 2 10 3 29 4 30 5 7 7 6 8 3 9 4 10 32 11 5 12 31 13
REMARK SMILES IDX 2 14 1 15 33 16 11 18 12 19 13 22 14 23 15 24 19 25 16 26
REMARK SMILES IDX 18 27 17 28 20 29 22 30 21 31 23 32 24 33 28 34 25 35 27 36
REMARK SMILES IDX 26 37
REMARK H PARENT 9 6 33 17 12 20 12 21
ROOT
ATOM     1   N1  UNL     1       0.492   0.780   2.924  1.00  0.00    -0.208 N   
ATOM     2   C7  UNL     1       0.541  -0.493   2.425  1.00  0.00     0.046 A   
ATOM     3   C8  UNL     1       1.388  -0.395   1.342  1.00  0.00     0.127 A   
ATOM     4   N3  UNL     1       1.826   0.899   1.233  1.00  0.00    -0.132 NA  
ATOM     5   N4  UNL     1       1.271   1.608   2.202  1.00  0.00    -0.076 NA  
ATOM     6   H8  UNL     1      -0.025  -1.306   2.859  1.00  0.00     0.083 HD  
ENDROOT
BRANCH   1   7
ATOM     7   C6  UNL     1      -0.285   1.276   4.047  1.00  0.00     0.169 C   
BRANCH   7   8
ATOM     8   C5  UNL     1      -1.665   1.683   3.596  1.00  0.00    -0.026 A   
ATOM     9   C2  UNL     1      -4.225   2.444   2.682  1.00  0.00     0.104 A   
ATOM     10  C3  UNL     1      -3.210   3.393   2.787  1.00  0.00     0.036 A   
ATOM     11  C25 UNL     1      -3.943   1.119   3.031  1.00  0.00     0.102 A   
ATOM     12  C4  UNL     1      -1.937   3.013   3.236  1.00  0.00     0.008 A   
ATOM     13  C24 UNL     1      -2.689   0.733   3.490  1.00  0.00     0.041 A   
BRANCH   9  14
ATOM     14  O1  UNL     1      -5.505   2.669   2.249  1.00  0.00    -0.347 OA  
ATOM     15  C1  UNL     1      -5.863   4.025   2.000  1.00  0.00     0.203 C   
ENDBRANCH   9  14
BRANCH  11  16
ATOM     16  O4  UNL     1      -4.908   0.155   2.925  1.00  0.00    -0.358 OA  
ATOM     17  H31 UNL     1      -5.717   0.634   2.652  1.00  0.00     0.218 HD  
ENDBRANCH  11  16
ENDBRANCH   7   8
ENDBRANCH   1   7
BRANCH   3  18
ATOM     18  C9  UNL     1       1.797  -1.421   0.334  1.00  0.00     0.117 C   
BRANCH  18  19
ATOM     19  N2  UNL     1       1.038  -1.230  -0.956  1.00  0.00     0.249 N   
ATOM     20  H10 UNL     1       1.216  -2.016  -1.590  1.00  0.00     0.199 HD  
ATOM     21  H11 UNL     1       0.035  -1.284  -0.738  1.00  0.00     0.199 HD  
BRANCH  19  22
ATOM     22  C10 UNL     1       1.242   0.050  -1.702  1.00  0.00     0.164 C   
BRANCH  22  23
ATOM     23  C11 UNL     1       0.519  -0.007  -3.021  1.00  0.00    -0.002 A   
ATOM     24  C12 UNL     1      -0.839   0.386  -3.107  1.00  0.00     0.012 A   
ATOM     25  C16 UNL     1       1.171  -0.507  -4.161  1.00  0.00     0.045 A   
ATOM     26  C13 UNL     1      -1.537   0.293  -4.316  1.00  0.00     0.037 A   
ATOM     27  C15 UNL     1       0.453  -0.585  -5.337  1.00  0.00     0.109 A   
ATOM     28  C14 UNL     1      -0.862  -0.196  -5.413  1.00  0.00     0.108 A   
ATOM     29  O2  UNL     1       0.929  -1.043  -6.524  1.00  0.00    -0.316 OA  
ATOM     30  O3  UNL     1      -1.378  -0.356  -6.659  1.00  0.00    -0.316 OA  
ATOM     31  C17 UNL     1      -0.226  -0.855  -7.373  1.00  0.00     0.337 C   
ENDBRANCH  22  23
ENDBRANCH  19  22
ENDBRANCH  18  19
BRANCH  18  32
ATOM     32  C18 UNL     1       3.334  -1.498   0.101  1.00  0.00     0.043 C   
ATOM     33  C19 UNL     1       4.062  -1.851   1.420  1.00  0.00     0.010 C   
ATOM     34  C23 UNL     1       3.719  -2.519  -0.990  1.00  0.00     0.010 C   
ATOM     35  C20 UNL     1       5.572  -1.977   1.235  1.00  0.00     0.001 C   
ATOM     36  C22 UNL     1       5.232  -2.645  -1.162  1.00  0.00     0.001 C   
ATOM     37  C21 UNL     1       5.922  -2.987   0.151  1.00  0.00     0.000 C   
ENDBRANCH  18  32
ENDBRANCH   3  18
TORSDOF 9
