REMARK SMILES CC(C)[C@H]([NH2+]Cc1ccc2c(c1)OCO2)c1cn(Cc2cccc(O)c2)nn1
REMARK SMILES IDX 16 1 17 2 18 3 27 4 28 5 4 7 2 8 1 9 3 10 5 11 6 14 7 15
REMARK SMILES IDX 8 16 12 17 9 18 11 19 10 20 13 21 15 22 14 23 19 24 20 25
REMARK SMILES IDX 21 26 26 27 22 28 24 29 23 30 25 31
REMARK H PARENT 17 6 5 12 5 13 25 32
ROOT
ATOM     1   C13 UNL     1       0.441   1.606   0.746  1.00  0.00     0.127 A   
ATOM     2   C14 UNL     1      -0.034   1.546  -0.545  1.00  0.00     0.046 A   
ATOM     3   N2  UNL     1       1.047   1.888  -1.309  1.00  0.00    -0.208 N   
ATOM     4   N3  UNL     1       2.103   2.203  -0.534  1.00  0.00    -0.076 NA  
ATOM     5   N4  UNL     1       1.743   2.034   0.728  1.00  0.00    -0.132 NA  
ATOM     6   H18 UNL     1      -0.976   1.236  -0.977  1.00  0.00     0.083 HD  
ENDROOT
BRANCH   1   7
ATOM     7   C4  UNL     1      -0.191   1.182   2.030  1.00  0.00     0.117 C   
BRANCH   7   8
ATOM     8   C2  UNL     1      -0.849   2.365   2.790  1.00  0.00     0.037 C   
ATOM     9   C1  UNL     1       0.143   3.386   3.356  1.00  0.00     0.014 C   
ATOM     10  C3  UNL     1      -1.771   1.871   3.912  1.00  0.00     0.014 C   
ENDBRANCH   7   8
BRANCH   7  11
ATOM     11  N1  UNL     1       0.803   0.470   2.920  1.00  0.00     0.249 N   
ATOM     12  H9  UNL     1       0.375   0.243   3.820  1.00  0.00     0.199 HD  
ATOM     13  H10 UNL     1       1.570   1.131   3.096  1.00  0.00     0.199 HD  
BRANCH  11  14
ATOM     14  C5  UNL     1       1.437  -0.768   2.360  1.00  0.00     0.164 C   
BRANCH  14  15
ATOM     15  C6  UNL     1       0.450  -1.809   1.912  1.00  0.00    -0.002 A   
ATOM     16  C7  UNL     1       0.299  -2.094   0.532  1.00  0.00     0.012 A   
ATOM     17  C11 UNL     1      -0.350  -2.485   2.848  1.00  0.00     0.045 A   
ATOM     18  C8  UNL     1      -0.643  -3.026   0.087  1.00  0.00     0.037 A   
ATOM     19  C10 UNL     1      -1.269  -3.400   2.375  1.00  0.00     0.109 A   
ATOM     20  C9  UNL     1      -1.413  -3.662   1.035  1.00  0.00     0.108 A   
ATOM     21  O1  UNL     1      -2.122  -4.128   3.142  1.00  0.00    -0.316 OA  
ATOM     22  O2  UNL     1      -2.373  -4.590   0.789  1.00  0.00    -0.316 OA  
ATOM     23  C12 UNL     1      -2.802  -4.907   2.131  1.00  0.00     0.337 C   
ENDBRANCH  14  15
ENDBRANCH  11  14
ENDBRANCH   7  11
ENDBRANCH   1   7
BRANCH   3  24
ATOM     24  C15 UNL     1       1.174   1.824  -2.755  1.00  0.00     0.169 C   
BRANCH  24  25
ATOM     25  C16 UNL     1       1.494   0.413  -3.185  1.00  0.00    -0.026 A   
ATOM     26  C17 UNL     1       2.827  -0.006  -3.319  1.00  0.00     0.005 A   
ATOM     27  C21 UNL     1       0.468  -0.517  -3.404  1.00  0.00     0.038 A   
ATOM     28  C18 UNL     1       3.123  -1.324  -3.674  1.00  0.00     0.003 A   
ATOM     29  C20 UNL     1       0.775  -1.830  -3.748  1.00  0.00     0.072 A   
ATOM     30  C19 UNL     1       2.095  -2.242  -3.889  1.00  0.00     0.033 A   
BRANCH  29  31
ATOM     31  O3  UNL     1      -0.263  -2.693  -3.928  1.00  0.00    -0.361 OA  
ATOM     32  H24 UNL     1       0.078  -3.514  -4.324  1.00  0.00     0.218 HD  
ENDBRANCH  29  31
ENDBRANCH  24  25
ENDBRANCH   3  24
TORSDOF 8
