REMARK SMILES CC(C)[C@H]([NH2+]Cc1ccc2c(c1)OCO2)c1cn(Cc2cnc(Cl)cn2)nn1
REMARK SMILES IDX 16 1 17 2 18 3 27 4 28 5 4 7 2 8 1 9 3 10 5 11 6 14 7 15
REMARK SMILES IDX 8 16 12 17 9 18 11 19 10 20 13 21 15 22 14 23 19 24 20 25
REMARK SMILES IDX 21 26 26 27 22 28 25 29 23 30 24 31
REMARK H PARENT 17 6 5 12 5 13
ROOT
ATOM     1   C13 UNL     1       0.554  -1.694  -1.305  1.00  0.00     0.127 A   
ATOM     2   C14 UNL     1      -0.293  -1.862  -2.377  1.00  0.00     0.046 A   
ATOM     3   N2  UNL     1      -1.379  -2.502  -1.845  1.00  0.00    -0.206 N   
ATOM     4   N5  UNL     1      -1.212  -2.713  -0.525  1.00  0.00    -0.076 NA  
ATOM     5   N6  UNL     1      -0.030  -2.229  -0.184  1.00  0.00    -0.132 NA  
ATOM     6   H18 UNL     1      -0.241  -1.588  -3.423  1.00  0.00     0.083 HD  
ENDROOT
BRANCH   1   7
ATOM     7   C4  UNL     1       1.894  -1.033  -1.197  1.00  0.00     0.117 C   
BRANCH   7   8
ATOM     8   C2  UNL     1       3.042  -1.956  -1.683  1.00  0.00     0.037 C   
ATOM     9   C1  UNL     1       4.349  -1.179  -1.879  1.00  0.00     0.014 C   
ATOM     10  C3  UNL     1       3.292  -3.168  -0.776  1.00  0.00     0.014 C   
ENDBRANCH   7   8
BRANCH   7  11
ATOM     11  N1  UNL     1       2.145  -0.586   0.218  1.00  0.00     0.249 N   
ATOM     12  H9  UNL     1       3.141  -0.444   0.408  1.00  0.00     0.199 HD  
ATOM     13  H10 UNL     1       1.842  -1.357   0.832  1.00  0.00     0.199 HD  
BRANCH  11  14
ATOM     14  C5  UNL     1       1.395   0.629   0.643  1.00  0.00     0.164 C   
BRANCH  14  15
ATOM     15  C6  UNL     1       1.645   0.912   2.097  1.00  0.00    -0.002 A   
ATOM     16  C7  UNL     1       0.842   0.297   3.088  1.00  0.00     0.012 A   
ATOM     17  C11 UNL     1       2.711   1.741   2.486  1.00  0.00     0.045 A   
ATOM     18  C8  UNL     1       1.087   0.514   4.448  1.00  0.00     0.037 A   
ATOM     19  C10 UNL     1       2.926   1.932   3.835  1.00  0.00     0.109 A   
ATOM     20  C9  UNL     1       2.138   1.337   4.788  1.00  0.00     0.108 A   
ATOM     21  O1  UNL     1       3.909   2.698   4.377  1.00  0.00    -0.316 OA  
ATOM     22  O2  UNL     1       2.523   1.655   6.051  1.00  0.00    -0.316 OA  
ATOM     23  C12 UNL     1       3.633   2.539   5.788  1.00  0.00     0.337 C   
ENDBRANCH  14  15
ENDBRANCH  11  14
ENDBRANCH   7  11
ENDBRANCH   1   7
BRANCH   3  24
ATOM     24  C15 UNL     1      -2.598  -2.917  -2.511  1.00  0.00     0.191 C   
BRANCH  24  25
ATOM     25  C16 UNL     1      -3.576  -1.779  -2.541  1.00  0.00     0.078 A   
ATOM     26  C17 UNL     1      -4.376  -1.492  -1.437  1.00  0.00     0.138 A   
ATOM     27  N4  UNL     1      -3.624  -1.013  -3.665  1.00  0.00    -0.255 NA  
ATOM     28  N3  UNL     1      -5.247  -0.457  -1.409  1.00  0.00    -0.241 NA  
ATOM     29  C19 UNL     1      -4.518   0.011  -3.642  1.00  0.00     0.152 A   
ATOM     30  C18 UNL     1      -5.308   0.280  -2.538  1.00  0.00     0.147 A   
ATOM     31  CL1 UNL     1      -6.410   1.586  -2.508  1.00  0.00    -0.061 Cl  
ENDBRANCH  24  25
ENDBRANCH   3  24
TORSDOF 7
