REMARK SMILES OC[C@H](c1cccc(F)c1O)n1cc([C@@H]([NH2+]Cc2ccc3c(c2)OCO3)C2CCCC2)nn1
REMARK SMILES IDX 12 1 13 2 14 3 32 4 33 5 3 7 2 8 1 9 4 11 5 12 10 13 6 14
REMARK SMILES IDX 8 15 7 16 9 17 11 18 15 20 16 21 17 24 18 25 19 26 23 27
REMARK SMILES IDX 20 28 22 29 21 30 24 31 26 32 25 33 27 34 28 35 31 36 29 37
REMARK SMILES IDX 30 38
REMARK H PARENT 13 6 1 10 11 19 16 22 16 23
ROOT
ATOM     1   N1  UNL     1       0.740   1.169   1.695  1.00  0.00    -0.202 N   
ATOM     2   C9  UNL     1       0.376  -0.048   1.188  1.00  0.00     0.046 A   
ATOM     3   C10 UNL     1       1.430  -0.408   0.382  1.00  0.00     0.127 A   
ATOM     4   N3  UNL     1       2.360   0.601   0.376  1.00  0.00    -0.132 NA  
ATOM     5   N4  UNL     1       1.925   1.563   1.173  1.00  0.00    -0.075 NA  
ATOM     6   H9  UNL     1      -0.553  -0.533   1.456  1.00  0.00     0.083 HD  
ENDROOT
BRANCH   1   7
ATOM     7   C2  UNL     1       0.043   2.025   2.654  1.00  0.00     0.158 C   
BRANCH   7   8
ATOM     8   C1  UNL     1      -0.156   1.355   4.034  1.00  0.00     0.186 C   
BRANCH   8   9
ATOM     9   O1  UNL     1      -0.796   0.080   4.005  1.00  0.00    -0.394 OA  
ATOM     10  H1  UNL     1      -1.697   0.233   3.644  1.00  0.00     0.210 HD  
ENDBRANCH   8   9
ENDBRANCH   7   8
BRANCH   7  11
ATOM     11  C3  UNL     1      -1.160   2.702   2.009  1.00  0.00     0.010 A   
ATOM     12  C4  UNL     1      -0.967   3.978   1.424  1.00  0.00     0.009 A   
ATOM     13  C8  UNL     1      -2.444   2.149   1.929  1.00  0.00     0.112 A   
ATOM     14  C5  UNL     1      -2.018   4.676   0.817  1.00  0.00     0.004 A   
ATOM     15  C7  UNL     1      -3.489   2.850   1.315  1.00  0.00     0.153 A   
ATOM     16  C6  UNL     1      -3.290   4.111   0.770  1.00  0.00     0.042 A   
ATOM     17  F1  UNL     1      -4.703   2.274   1.245  1.00  0.00    -0.204 F   
BRANCH  13  18
ATOM     18  O2  UNL     1      -2.712   0.908   2.443  1.00  0.00    -0.358 OA  
ATOM     19  H8  UNL     1      -3.665   0.737   2.274  1.00  0.00     0.218 HD  
ENDBRANCH  13  18
ENDBRANCH   7  11
ENDBRANCH   1   7
BRANCH   3  20
ATOM     20  C11 UNL     1       1.658  -1.616  -0.465  1.00  0.00     0.117 C   
BRANCH  20  21
ATOM     21  N2  UNL     1       2.328  -1.176  -1.754  1.00  0.00     0.249 N   
ATOM     22  H11 UNL     1       3.111  -1.790  -1.994  1.00  0.00     0.199 HD  
ATOM     23  H12 UNL     1       2.759  -0.260  -1.544  1.00  0.00     0.199 HD  
BRANCH  21  24
ATOM     24  C12 UNL     1       1.438  -1.022  -2.941  1.00  0.00     0.164 C   
BRANCH  24  25
ATOM     25  C13 UNL     1       0.284  -0.075  -2.738  1.00  0.00    -0.002 A   
ATOM     26  C14 UNL     1       0.507   1.316  -2.592  1.00  0.00     0.012 A   
ATOM     27  C18 UNL     1      -1.030  -0.573  -2.671  1.00  0.00     0.045 A   
ATOM     28  C15 UNL     1      -0.560   2.199  -2.382  1.00  0.00     0.037 A   
ATOM     29  C17 UNL     1      -2.057   0.324  -2.468  1.00  0.00     0.109 A   
ATOM     30  C16 UNL     1      -1.830   1.671  -2.330  1.00  0.00     0.108 A   
ATOM     31  O3  UNL     1      -3.374   0.006  -2.386  1.00  0.00    -0.316 OA  
ATOM     32  O4  UNL     1      -2.978   2.374  -2.152  1.00  0.00    -0.316 OA  
ATOM     33  C19 UNL     1      -3.959   1.319  -2.221  1.00  0.00     0.337 C   
ENDBRANCH  24  25
ENDBRANCH  21  24
ENDBRANCH  20  21
BRANCH  20  34
ATOM     34  C20 UNL     1       2.555  -2.656   0.232  1.00  0.00     0.043 C   
ATOM     35  C21 UNL     1       1.951  -3.204   1.530  1.00  0.00     0.010 C   
ATOM     36  C24 UNL     1       2.771  -3.935  -0.587  1.00  0.00     0.010 C   
ATOM     37  C22 UNL     1       2.777  -4.449   1.803  1.00  0.00     0.001 C   
ATOM     38  C23 UNL     1       3.078  -5.037   0.429  1.00  0.00     0.001 C   
ENDBRANCH  20  34
ENDBRANCH   3  20
TORSDOF 10
