REMARK SMILES OC[C@@H](c1cccc(F)c1O)n1cc([C@@H]([NH2+]Cc2ccc3c(c2)OCO3)C2CCCC2)nn1
REMARK SMILES IDX 12 1 13 2 14 3 32 4 33 5 3 7 2 8 1 9 4 11 5 12 10 13 6 14
REMARK SMILES IDX 8 15 7 16 9 17 11 18 15 20 16 21 17 24 18 25 19 26 23 27
REMARK SMILES IDX 20 28 22 29 21 30 24 31 26 32 25 33 27 34 28 35 31 36 29 37
REMARK SMILES IDX 30 38
REMARK H PARENT 13 6 1 10 11 19 16 22 16 23
ROOT
ATOM     1   N1  UNL     1      -1.735   1.647   1.811  1.00  0.00    -0.202 N   
ATOM     2   C9  UNL     1      -2.023   0.356   1.450  1.00  0.00     0.046 A   
ATOM     3   C10 UNL     1      -1.287   0.146   0.308  1.00  0.00     0.127 A   
ATOM     4   N3  UNL     1      -0.597   1.288   0.004  1.00  0.00    -0.132 NA  
ATOM     5   N4  UNL     1      -0.887   2.203   0.914  1.00  0.00    -0.075 NA  
ATOM     6   H9  UNL     1      -2.700  -0.271   2.011  1.00  0.00     0.083 HD  
ENDROOT
BRANCH   1   7
ATOM     7   C2  UNL     1      -2.259   2.465   2.907  1.00  0.00     0.158 C   
BRANCH   7   8
ATOM     8   C1  UNL     1      -3.527   1.903   3.582  1.00  0.00     0.186 C   
BRANCH   8   9
ATOM     9   O1  UNL     1      -4.636   1.905   2.679  1.00  0.00    -0.394 OA  
ATOM     10  H1  UNL     1      -5.416   1.625   3.191  1.00  0.00     0.210 HD  
ENDBRANCH   8   9
ENDBRANCH   7   8
BRANCH   7  11
ATOM     11  C3  UNL     1      -1.157   2.773   3.911  1.00  0.00     0.010 A   
ATOM     12  C4  UNL     1      -0.655   4.088   4.005  1.00  0.00     0.009 A   
ATOM     13  C8  UNL     1      -0.601   1.800   4.745  1.00  0.00     0.112 A   
ATOM     14  C5  UNL     1       0.361   4.410   4.914  1.00  0.00     0.004 A   
ATOM     15  C7  UNL     1       0.410   2.129   5.649  1.00  0.00     0.153 A   
ATOM     16  C6  UNL     1       0.891   3.428   5.745  1.00  0.00     0.042 A   
ATOM     17  F1  UNL     1       0.922   1.167   6.429  1.00  0.00    -0.204 F   
BRANCH  13  18
ATOM     18  O2  UNL     1      -1.039   0.505   4.676  1.00  0.00    -0.358 OA  
ATOM     19  H8  UNL     1      -0.526   0.005   5.345  1.00  0.00     0.218 HD  
ENDBRANCH  13  18
ENDBRANCH   7  11
ENDBRANCH   1   7
BRANCH   3  20
ATOM     20  C11 UNL     1      -1.183  -1.041  -0.592  1.00  0.00     0.117 C   
BRANCH  20  21
ATOM     21  N2  UNL     1      -0.712  -0.620  -1.960  1.00  0.00     0.249 N   
ATOM     22  H11 UNL     1      -0.290  -1.396  -2.478  1.00  0.00     0.199 HD  
ATOM     23  H12 UNL     1       0.039   0.072  -1.814  1.00  0.00     0.199 HD  
BRANCH  21  24
ATOM     24  C12 UNL     1      -1.746   0.041  -2.808  1.00  0.00     0.164 C   
BRANCH  24  25
ATOM     25  C13 UNL     1      -1.188   0.342  -4.169  1.00  0.00    -0.002 A   
ATOM     26  C14 UNL     1      -1.378  -0.567  -5.235  1.00  0.00     0.012 A   
ATOM     27  C18 UNL     1      -0.432   1.506  -4.378  1.00  0.00     0.045 A   
ATOM     28  C15 UNL     1      -0.832  -0.317  -6.497  1.00  0.00     0.037 A   
ATOM     29  C17 UNL     1       0.093   1.722  -5.633  1.00  0.00     0.109 A   
ATOM     30  C16 UNL     1      -0.099   0.836  -6.665  1.00  0.00     0.108 A   
ATOM     31  O3  UNL     1       0.846   2.791  -5.999  1.00  0.00    -0.316 OA  
ATOM     32  O4  UNL     1       0.507   1.235  -7.811  1.00  0.00    -0.316 OA  
ATOM     33  C19 UNL     1       1.108   2.477  -7.387  1.00  0.00     0.337 C   
ENDBRANCH  24  25
ENDBRANCH  21  24
ENDBRANCH  20  21
BRANCH  20  34
ATOM     34  C20 UNL     1      -0.249  -2.125  -0.015  1.00  0.00     0.043 C   
ATOM     35  C21 UNL     1      -0.250  -3.453  -0.802  1.00  0.00     0.010 C   
ATOM     36  C24 UNL     1       1.231  -1.735   0.110  1.00  0.00     0.010 C   
ATOM     37  C22 UNL     1       1.214  -3.866  -0.944  1.00  0.00     0.001 C   
ATOM     38  C23 UNL     1       1.943  -3.077   0.130  1.00  0.00     0.001 C   
ENDBRANCH  20  34
ENDBRANCH   3  20
TORSDOF 10
