REMARK SMILES CC(C)C[C@H]([NH2+]Cc1ccc2c(c1)OCO2)c1cn(Cc2cnn(C(C)C)c2)nn1
REMARK SMILES IDX 17 1 18 2 19 3 29 4 30 5 5 7 4 8 2 9 1 10 3 11 6 12 7 15
REMARK SMILES IDX 8 16 9 17 13 18 10 19 12 20 11 21 14 22 16 23 15 24 20 25
REMARK SMILES IDX 21 26 22 27 28 28 23 29 24 30 25 31 26 32 27 33
REMARK H PARENT 18 6 6 13 6 14
ROOT
ATOM     1   C14 UNL     1      -0.828   0.801  -0.008  1.00  0.00     0.127 A   
ATOM     2   C15 UNL     1      -0.696   1.178  -1.324  1.00  0.00     0.046 A   
ATOM     3   N2  UNL     1      -0.182   2.447  -1.260  1.00  0.00    -0.208 N   
ATOM     4   N5  UNL     1      -0.018   2.827   0.022  1.00  0.00    -0.076 NA  
ATOM     5   N6  UNL     1      -0.425   1.835   0.796  1.00  0.00    -0.132 NA  
ATOM     6   H20 UNL     1      -0.890   0.678  -2.263  1.00  0.00     0.083 HD  
ENDROOT
BRANCH   1   7
ATOM     7   C5  UNL     1      -1.276  -0.487   0.608  1.00  0.00     0.114 C   
BRANCH   7   8
ATOM     8   C4  UNL     1      -2.811  -0.522   0.745  1.00  0.00     0.064 C   
BRANCH   8   9
ATOM     9   C2  UNL     1      -3.423  -1.821   1.314  1.00  0.00    -0.012 C   
ATOM     10  C1  UNL     1      -2.996  -3.066   0.537  1.00  0.00     0.007 C   
ATOM     11  C3  UNL     1      -4.952  -1.711   1.314  1.00  0.00     0.007 C   
ENDBRANCH   8   9
ENDBRANCH   7   8
BRANCH   7  12
ATOM     12  N1  UNL     1      -0.649  -0.659   1.964  1.00  0.00     0.249 N   
ATOM     13  H11 UNL     1      -1.141  -1.350   2.536  1.00  0.00     0.199 HD  
ATOM     14  H12 UNL     1      -0.746   0.244   2.454  1.00  0.00     0.199 HD  
BRANCH  12  15
ATOM     15  C6  UNL     1       0.802  -1.001   1.954  1.00  0.00     0.164 C   
BRANCH  15  16
ATOM     16  C7  UNL     1       1.323  -1.102   3.359  1.00  0.00    -0.002 A   
ATOM     17  C8  UNL     1       1.365  -2.352   4.022  1.00  0.00     0.012 A   
ATOM     18  C12 UNL     1       1.720   0.061   4.042  1.00  0.00     0.045 A   
ATOM     19  C9  UNL     1       1.806  -2.446   5.347  1.00  0.00     0.037 A   
ATOM     20  C11 UNL     1       2.149  -0.068   5.347  1.00  0.00     0.109 A   
ATOM     21  C10 UNL     1       2.191  -1.285   5.981  1.00  0.00     0.108 A   
ATOM     22  O1  UNL     1       2.565   0.949   6.146  1.00  0.00    -0.316 OA  
ATOM     23  O2  UNL     1       2.640  -1.188   7.260  1.00  0.00    -0.316 OA  
ATOM     24  C13 UNL     1       2.890   0.230   7.359  1.00  0.00     0.337 C   
ENDBRANCH  15  16
ENDBRANCH  12  15
ENDBRANCH   7  12
ENDBRANCH   1   7
BRANCH   3  25
ATOM     25  C16 UNL     1       0.172   3.351  -2.348  1.00  0.00     0.172 C   
BRANCH  25  26
ATOM     26  C17 UNL     1       0.931   2.645  -3.414  1.00  0.00     0.007 A   
ATOM     27  C18 UNL     1       2.228   2.092  -3.326  1.00  0.00     0.138 A   
ATOM     28  C22 UNL     1       0.540   2.375  -4.712  1.00  0.00     0.103 A   
ATOM     29  N3  UNL     1       2.600   1.482  -4.451  1.00  0.00    -0.190 NA  
ATOM     30  N4  UNL     1       1.577   1.702  -5.299  1.00  0.00    -0.230 N   
BRANCH  30  31
ATOM     31  C19 UNL     1       1.658   1.208  -6.672  1.00  0.00     0.091 C   
ATOM     32  C20 UNL     1       0.621   0.116  -6.928  1.00  0.00     0.030 C   
ATOM     33  C21 UNL     1       1.536   2.343  -7.687  1.00  0.00     0.030 C   
ENDBRANCH  30  31
ENDBRANCH  25  26
ENDBRANCH   3  25
TORSDOF 9
