REMARK SMILES COc1ccc(C)cc1CCn1cc([C@@H]([NH2+]Cc2ccc3c(c2)OCO3)C2CCCC2)nn1
REMARK SMILES IDX 12 1 13 2 14 3 32 4 33 5 11 7 10 8 9 9 3 10 4 11 5 12 8 13
REMARK SMILES IDX 6 14 7 15 2 16 1 17 15 18 16 19 17 22 18 23 19 24 23 25
REMARK SMILES IDX 20 26 22 27 21 28 24 29 26 30 25 31 27 32 28 33 31 34 29 35
REMARK SMILES IDX 30 36
REMARK H PARENT 13 6 16 20 16 21
ROOT
ATOM     1   N1  UNL     1      -1.366   1.493  -2.364  1.00  0.00    -0.212 N   
ATOM     2   C11 UNL     1      -0.481   2.262  -1.661  1.00  0.00     0.045 A   
ATOM     3   C12 UNL     1       0.708   1.579  -1.776  1.00  0.00     0.127 A   
ATOM     4   N3  UNL     1       0.519   0.468  -2.556  1.00  0.00    -0.132 NA  
ATOM     5   N4  UNL     1      -0.753   0.430  -2.917  1.00  0.00    -0.076 NA  
ATOM     6   H14 UNL     1      -0.788   3.144  -1.117  1.00  0.00     0.083 HD  
ENDROOT
BRANCH   1   7
ATOM     7   C10 UNL     1      -2.803   1.647  -2.442  1.00  0.00     0.139 C   
BRANCH   7   8
ATOM     8   C9  UNL     1      -3.560   0.598  -1.623  1.00  0.00     0.059 C   
BRANCH   8   9
ATOM     9   C8  UNL     1      -3.113   0.471  -0.178  1.00  0.00    -0.016 A   
ATOM     10  C2  UNL     1      -3.282   1.516   0.746  1.00  0.00     0.078 A   
ATOM     11  C3  UNL     1      -2.850   1.351   2.064  1.00  0.00     0.034 A   
ATOM     12  C4  UNL     1      -2.276   0.145   2.477  1.00  0.00     0.006 A   
ATOM     13  C7  UNL     1      -2.535  -0.738   0.252  1.00  0.00     0.010 A   
ATOM     14  C5  UNL     1      -2.111  -0.908   1.575  1.00  0.00    -0.051 A   
ATOM     15  C6  UNL     1      -1.565  -2.226   2.043  1.00  0.00     0.044 C   
BRANCH  10  16
ATOM     16  O1  UNL     1      -3.845   2.668   0.264  1.00  0.00    -0.349 OA  
ATOM     17  C1  UNL     1      -4.508   3.491   1.221  1.00  0.00     0.203 C   
ENDBRANCH  10  16
ENDBRANCH   8   9
ENDBRANCH   7   8
ENDBRANCH   1   7
BRANCH   3  18
ATOM     18  C13 UNL     1       2.025   1.791  -1.109  1.00  0.00     0.117 C   
BRANCH  18  19
ATOM     19  N2  UNL     1       2.533   0.473  -0.589  1.00  0.00     0.249 N   
ATOM     20  H16 UNL     1       3.538   0.491  -0.395  1.00  0.00     0.199 HD  
ATOM     21  H17 UNL     1       2.396  -0.212  -1.347  1.00  0.00     0.199 HD  
BRANCH  19  22
ATOM     22  C14 UNL     1       1.804  -0.048   0.603  1.00  0.00     0.164 C   
BRANCH  22  23
ATOM     23  C15 UNL     1       2.315  -1.409   0.979  1.00  0.00    -0.002 A   
ATOM     24  C16 UNL     1       3.310  -1.556   1.973  1.00  0.00     0.012 A   
ATOM     25  C20 UNL     1       1.833  -2.546   0.306  1.00  0.00     0.045 A   
ATOM     26  C17 UNL     1       3.812  -2.819   2.304  1.00  0.00     0.037 A   
ATOM     27  C19 UNL     1       2.348  -3.776   0.659  1.00  0.00     0.109 A   
ATOM     28  C18 UNL     1       3.310  -3.909   1.629  1.00  0.00     0.108 A   
ATOM     29  O2  UNL     1       1.989  -4.968   0.115  1.00  0.00    -0.316 OA  
ATOM     30  O3  UNL     1       3.679  -5.202   1.818  1.00  0.00    -0.316 OA  
ATOM     31  C21 UNL     1       2.828  -5.875   0.865  1.00  0.00     0.337 C   
ENDBRANCH  22  23
ENDBRANCH  19  22
ENDBRANCH  18  19
BRANCH  18  32
ATOM     32  C22 UNL     1       3.058   2.445  -2.046  1.00  0.00     0.043 C   
ATOM     33  C23 UNL     1       3.551   1.591  -3.221  1.00  0.00     0.010 C   
ATOM     34  C26 UNL     1       4.345   2.910  -1.338  1.00  0.00     0.010 C   
ATOM     35  C24 UNL     1       4.837   2.290  -3.632  1.00  0.00     0.001 C   
ATOM     36  C25 UNL     1       5.495   2.615  -2.300  1.00  0.00     0.001 C   
ENDBRANCH  18  32
ENDBRANCH   3  18
TORSDOF 9
