REMARK SMILES O=C(c1cccnc1)n1cc([C@@H]([NH2+]Cc2ccc3c(c2)OCO3)C2CCCCC2)nn1
REMARK SMILES IDX 12 1 11 2 9 3 10 4 31 5 30 6 2 7 1 8 3 9 4 10 8 11 5 12 7 13
REMARK SMILES IDX 6 14 13 15 14 18 15 19 16 20 20 21 17 22 19 23 18 24 21 25
REMARK SMILES IDX 23 26 22 27 24 28 25 29 29 30 26 31 28 32 27 33
REMARK H PARENT 13 16 13 17
ROOT
ATOM     1   C9  UNL     1      -0.359   1.168  -0.482  1.00  0.00     0.117 C   
ENDROOT
BRANCH   1   2
ATOM     2   C8  UNL     1       0.082   0.964   0.938  1.00  0.00     0.128 A   
ATOM     3   N2  UNL     1       0.315   0.661   3.098  1.00  0.00    -0.143 N   
ATOM     4   C7  UNL     1      -0.630   0.904   2.115  1.00  0.00     0.139 A   
ATOM     5   N5  UNL     1       1.527   0.518   2.513  1.00  0.00    -0.068 NA  
ATOM     6   N4  UNL     1       1.397   0.707   1.208  1.00  0.00    -0.131 NA  
BRANCH   3   7
ATOM     7   C1  UNL     1       0.112   0.494   4.476  1.00  0.00     0.272 C   
ATOM     8   O1  UNL     1      -1.063   0.496   4.842  1.00  0.00    -0.269 OA  
BRANCH   7   9
ATOM     9   C2  UNL     1       1.172   0.292   5.489  1.00  0.00     0.058 A   
ATOM     10  C3  UNL     1       2.464   0.809   5.380  1.00  0.00     0.017 A   
ATOM     11  C6  UNL     1       0.857  -0.424   6.638  1.00  0.00     0.124 A   
ATOM     12  C4  UNL     1       3.386   0.571   6.400  1.00  0.00     0.021 A   
ATOM     13  N1  UNL     1       1.738  -0.677   7.635  1.00  0.00    -0.264 NA  
ATOM     14  C5  UNL     1       2.982  -0.174   7.496  1.00  0.00     0.111 A   
ENDBRANCH   7   9
ENDBRANCH   3   7
ENDBRANCH   1   2
BRANCH   1  15
ATOM     15  N3  UNL     1      -0.947  -0.106  -1.037  1.00  0.00     0.249 N   
ATOM     16  H7  UNL     1      -1.808  -0.345  -0.530  1.00  0.00     0.199 HD  
ATOM     17  H8  UNL     1      -1.220   0.034  -2.016  1.00  0.00     0.199 HD  
BRANCH  15  18
ATOM     18  C10 UNL     1      -0.037  -1.294  -1.021  1.00  0.00     0.164 C   
BRANCH  18  19
ATOM     19  C11 UNL     1      -0.664  -2.432  -1.778  1.00  0.00    -0.002 A   
ATOM     20  C12 UNL     1      -0.358  -2.638  -3.144  1.00  0.00     0.012 A   
ATOM     21  C16 UNL     1      -1.604  -3.264  -1.146  1.00  0.00     0.045 A   
ATOM     22  C13 UNL     1      -0.975  -3.662  -3.871  1.00  0.00     0.037 A   
ATOM     23  C15 UNL     1      -2.197  -4.260  -1.894  1.00  0.00     0.109 A   
ATOM     24  C14 UNL     1      -1.893  -4.454  -3.218  1.00  0.00     0.108 A   
ATOM     25  O2  UNL     1      -3.129  -5.140  -1.441  1.00  0.00    -0.316 OA  
ATOM     26  O3  UNL     1      -2.592  -5.481  -3.766  1.00  0.00    -0.316 OA  
ATOM     27  C17 UNL     1      -3.360  -5.931  -2.629  1.00  0.00     0.337 C   
ENDBRANCH  18  19
ENDBRANCH  15  18
ENDBRANCH   1  15
BRANCH   1  28
ATOM     28  C18 UNL     1      -1.385   2.334  -0.640  1.00  0.00     0.043 C   
ATOM     29  C19 UNL     1      -1.922   2.526  -2.074  1.00  0.00     0.010 C   
ATOM     30  C23 UNL     1      -0.799   3.688  -0.170  1.00  0.00     0.010 C   
ATOM     31  C20 UNL     1      -0.853   3.030  -3.041  1.00  0.00     0.001 C   
ATOM     32  C22 UNL     1       0.278   4.226  -1.113  1.00  0.00     0.001 C   
ATOM     33  C21 UNL     1      -0.228   4.333  -2.549  1.00  0.00     0.000 C   
ENDBRANCH   1  28
TORSDOF 7
