REMARK SMILES CC(C)[C@H]([NH2+]Cc1ccc2c(c1)OCO2)c1cn([C@H](CO)c2ccc[nH]2)nn1
REMARK SMILES IDX 16 1 17 2 18 3 27 4 28 5 4 7 2 8 1 9 3 10 5 11 6 14 7 15
REMARK SMILES IDX 8 16 12 17 9 18 11 19 10 20 13 21 15 22 14 23 19 24 20 25
REMARK SMILES IDX 21 26 22 28 23 29 26 30 24 31 25 32
REMARK H PARENT 17 6 5 12 5 13 21 27 26 33
ROOT
ATOM     1   C13 UNL     1       0.832   0.326   0.713  1.00  0.00     0.127 A   
ATOM     2   C14 UNL     1      -0.488   0.496   0.371  1.00  0.00     0.046 A   
ATOM     3   N2  UNL     1      -0.445   0.966  -0.915  1.00  0.00    -0.201 N   
ATOM     4   N4  UNL     1       0.838   1.103  -1.324  1.00  0.00    -0.075 NA  
ATOM     5   N5  UNL     1       1.625   0.712  -0.338  1.00  0.00    -0.132 NA  
ATOM     6   H18 UNL     1      -1.418   0.306   0.887  1.00  0.00     0.083 HD  
ENDROOT
BRANCH   1   7
ATOM     7   C4  UNL     1       1.470  -0.242   1.939  1.00  0.00     0.117 C   
BRANCH   7   8
ATOM     8   C2  UNL     1       1.738   0.837   3.021  1.00  0.00     0.037 C   
ATOM     9   C1  UNL     1       2.144   0.204   4.357  1.00  0.00     0.014 C   
ATOM     10  C3  UNL     1       2.770   1.896   2.614  1.00  0.00     0.014 C   
ENDBRANCH   7   8
BRANCH   7  11
ATOM     11  N1  UNL     1       2.755  -0.946   1.558  1.00  0.00     0.249 N   
ATOM     12  H9  UNL     1       3.504  -0.741   2.224  1.00  0.00     0.199 HD  
ATOM     13  H10 UNL     1       3.049  -0.518   0.665  1.00  0.00     0.199 HD  
BRANCH  11  14
ATOM     14  C5  UNL     1       2.671  -2.422   1.359  1.00  0.00     0.164 C   
BRANCH  14  15
ATOM     15  C6  UNL     1       1.679  -2.855   0.317  1.00  0.00    -0.002 A   
ATOM     16  C7  UNL     1       1.904  -2.578  -1.052  1.00  0.00     0.012 A   
ATOM     17  C11 UNL     1       0.498  -3.515   0.700  1.00  0.00     0.045 A   
ATOM     18  C8  UNL     1       0.962  -2.934  -2.024  1.00  0.00     0.037 A   
ATOM     19  C10 UNL     1      -0.408  -3.855  -0.282  1.00  0.00     0.109 A   
ATOM     20  C9  UNL     1      -0.185  -3.569  -1.605  1.00  0.00     0.108 A   
ATOM     21  O1  UNL     1      -1.593  -4.489  -0.078  1.00  0.00    -0.316 OA  
ATOM     22  O2  UNL     1      -1.204  -3.982  -2.404  1.00  0.00    -0.316 OA  
ATOM     23  C12 UNL     1      -2.080  -4.596  -1.435  1.00  0.00     0.337 C   
ENDBRANCH  14  15
ENDBRANCH  11  14
ENDBRANCH   7  11
ENDBRANCH   1   7
BRANCH   3  24
ATOM     24  C15 UNL     1      -1.536   1.310  -1.830  1.00  0.00     0.169 C   
BRANCH  24  25
ATOM     25  C16 UNL     1      -1.822   2.825  -1.803  1.00  0.00     0.187 C   
BRANCH  25  26
ATOM     26  O3  UNL     1      -2.366   3.255  -0.546  1.00  0.00    -0.394 OA  
ATOM     27  H22 UNL     1      -2.466   4.226  -0.609  1.00  0.00     0.210 HD  
ENDBRANCH  25  26
ENDBRANCH  24  25
BRANCH  24  28
ATOM     28  C17 UNL     1      -2.759   0.453  -1.596  1.00  0.00     0.032 A   
ATOM     29  C18 UNL     1      -3.096  -0.788  -2.105  1.00  0.00     0.022 A   
ATOM     30  N3  UNL     1      -3.788   0.849  -0.768  1.00  0.00    -0.323 N   
ATOM     31  C19 UNL     1      -4.354  -1.145  -1.565  1.00  0.00     0.017 A   
ATOM     32  C20 UNL     1      -4.755  -0.118  -0.741  1.00  0.00     0.072 A   
ATOM     33  H26 UNL     1      -3.819   1.735  -0.269  1.00  0.00     0.152 HD  
ENDBRANCH  24  28
ENDBRANCH   3  24
TORSDOF 9
