REMARK SMILES CC(C)[C@H]([NH2+]Cc1ccc2c(c1)OCO2)c1cn([C@@H](CO)c2ccc[nH]2)nn1
REMARK SMILES IDX 16 1 17 2 18 3 27 4 28 5 4 7 2 8 1 9 3 10 5 11 6 14 7 15
REMARK SMILES IDX 8 16 12 17 9 18 11 19 10 20 13 21 15 22 14 23 19 24 20 25
REMARK SMILES IDX 21 26 22 28 23 29 26 30 24 31 25 32
REMARK H PARENT 17 6 5 12 5 13 21 27 26 33
ROOT
ATOM     1   C13 UNL     1       0.590  -0.544  -0.183  1.00  0.00     0.127 A   
ATOM     2   C14 UNL     1       1.352  -1.548  -0.734  1.00  0.00     0.046 A   
ATOM     3   N2  UNL     1       2.360  -0.889  -1.387  1.00  0.00    -0.201 N   
ATOM     4   N4  UNL     1       2.255   0.444  -1.187  1.00  0.00    -0.075 NA  
ATOM     5   N5  UNL     1       1.171   0.665  -0.461  1.00  0.00    -0.132 NA  
ATOM     6   H18 UNL     1       1.264  -2.625  -0.743  1.00  0.00     0.083 HD  
ENDROOT
BRANCH   1   7
ATOM     7   C4  UNL     1      -0.645  -0.599   0.655  1.00  0.00     0.117 C   
BRANCH   7   8
ATOM     8   C2  UNL     1      -1.966  -0.555  -0.155  1.00  0.00     0.037 C   
ATOM     9   C1  UNL     1      -2.150   0.714  -0.995  1.00  0.00     0.014 C   
ATOM     10  C3  UNL     1      -2.127  -1.793  -1.045  1.00  0.00     0.014 C   
ENDBRANCH   7   8
BRANCH   7  11
ATOM     11  N1  UNL     1      -0.652   0.543   1.641  1.00  0.00     0.249 N   
ATOM     12  H9  UNL     1      -1.591   0.702   2.021  1.00  0.00     0.199 HD  
ATOM     13  H10 UNL     1      -0.400   1.394   1.116  1.00  0.00     0.199 HD  
BRANCH  11  14
ATOM     14  C5  UNL     1       0.317   0.418   2.765  1.00  0.00     0.164 C   
BRANCH  14  15
ATOM     15  C6  UNL     1       0.214   1.606   3.678  1.00  0.00    -0.002 A   
ATOM     16  C7  UNL     1       0.959   2.778   3.407  1.00  0.00     0.012 A   
ATOM     17  C11 UNL     1      -0.664   1.581   4.774  1.00  0.00     0.045 A   
ATOM     18  C8  UNL     1       0.841   3.909   4.223  1.00  0.00     0.037 A   
ATOM     19  C10 UNL     1      -0.754   2.713   5.558  1.00  0.00     0.109 A   
ATOM     20  C9  UNL     1      -0.025   3.845   5.290  1.00  0.00     0.108 A   
ATOM     21  O1  UNL     1      -1.549   2.851   6.651  1.00  0.00    -0.316 OA  
ATOM     22  O2  UNL     1      -0.270   4.840   6.181  1.00  0.00    -0.316 OA  
ATOM     23  C12 UNL     1      -1.218   4.197   7.061  1.00  0.00     0.337 C   
ENDBRANCH  14  15
ENDBRANCH  11  14
ENDBRANCH   7  11
ENDBRANCH   1   7
BRANCH   3  24
ATOM     24  C15 UNL     1       3.463  -1.420  -2.193  1.00  0.00     0.169 C   
BRANCH  24  25
ATOM     25  C16 UNL     1       4.756  -1.526  -1.361  1.00  0.00     0.187 C   
BRANCH  25  26
ATOM     26  O3  UNL     1       4.653  -2.500  -0.312  1.00  0.00    -0.394 OA  
ATOM     27  H22 UNL     1       5.506  -2.481   0.164  1.00  0.00     0.210 HD  
ENDBRANCH  25  26
ENDBRANCH  24  25
BRANCH  24  28
ATOM     28  C17 UNL     1       3.077  -2.705  -2.887  1.00  0.00     0.032 A   
ATOM     29  C18 UNL     1       2.425  -2.913  -4.090  1.00  0.00     0.022 A   
ATOM     30  N3  UNL     1       3.350  -3.947  -2.352  1.00  0.00    -0.323 N   
ATOM     31  C19 UNL     1       2.295  -4.310  -4.272  1.00  0.00     0.017 A   
ATOM     32  C20 UNL     1       2.870  -4.923  -3.182  1.00  0.00     0.072 A   
ATOM     33  H26 UNL     1       3.836  -4.104  -1.472  1.00  0.00     0.152 HD  
ENDBRANCH  24  28
ENDBRANCH   3  24
TORSDOF 9
