REMARK SMILES Cc1cc(Cn2cc([C@@H]([NH2+]Cc3ccc4c(c3)OCO4)C(C)(C)C)nn2)n(C)n1
REMARK SMILES IDX 6 1 7 2 8 3 25 4 26 5 5 7 4 8 2 9 3 10 29 11 27 12 1 13
REMARK SMILES IDX 28 14 9 15 10 16 11 19 12 20 13 21 17 22 14 23 16 24 15 25
REMARK SMILES IDX 18 26 20 27 19 28 21 29 22 30 23 31 24 32
REMARK H PARENT 7 6 10 17 10 18
ROOT
ATOM     1   N1  UNL     1      -1.169   3.353   0.133  1.00  0.00    -0.206 N   
ATOM     2   C6  UNL     1      -0.455   2.281   0.595  1.00  0.00     0.046 A   
ATOM     3   C7  UNL     1       0.338   1.925  -0.474  1.00  0.00     0.127 A   
ATOM     4   N3  UNL     1       0.126   2.804  -1.505  1.00  0.00    -0.132 NA  
ATOM     5   N4  UNL     1      -0.794   3.675  -1.121  1.00  0.00    -0.076 NA  
ATOM     6   H7  UNL     1      -0.636   1.841   1.566  1.00  0.00     0.083 HD  
ENDROOT
BRANCH   1   7
ATOM     7   C5  UNL     1      -2.347   3.960   0.738  1.00  0.00     0.187 C   
BRANCH   7   8
ATOM     8   C4  UNL     1      -3.508   3.042   0.563  1.00  0.00     0.049 A   
ATOM     9   C2  UNL     1      -5.054   1.453   0.695  1.00  0.00     0.057 A   
ATOM     10  C3  UNL     1      -4.096   2.162   1.451  1.00  0.00     0.047 A   
ATOM     11  N6  UNL     1      -5.066   1.859  -0.578  1.00  0.00    -0.187 NA  
ATOM     12  N5  UNL     1      -4.197   2.884  -0.615  1.00  0.00    -0.231 N   
ATOM     13  C1  UNL     1      -5.954   0.362   1.142  1.00  0.00     0.068 C   
ATOM     14  C21 UNL     1      -4.055   3.617  -1.853  1.00  0.00     0.159 C   
ENDBRANCH   7   8
ENDBRANCH   1   7
BRANCH   3  15
ATOM     15  C8  UNL     1       1.201   0.720  -0.680  1.00  0.00     0.120 C   
BRANCH  15  16
ATOM     16  N2  UNL     1       0.889   0.101  -2.031  1.00  0.00     0.250 N   
ATOM     17  H9  UNL     1       1.056   0.831  -2.735  1.00  0.00     0.199 HD  
ATOM     18  H10 UNL     1       1.527  -0.671  -2.230  1.00  0.00     0.199 HD  
BRANCH  16  19
ATOM     19  C9  UNL     1      -0.516  -0.380  -2.243  1.00  0.00     0.164 C   
BRANCH  19  20
ATOM     20  C10 UNL     1      -0.958  -1.412  -1.242  1.00  0.00    -0.002 A   
ATOM     21  C11 UNL     1      -0.365  -2.697  -1.218  1.00  0.00     0.012 A   
ATOM     22  C15 UNL     1      -1.955  -1.092  -0.303  1.00  0.00     0.045 A   
ATOM     23  C12 UNL     1      -0.747  -3.645  -0.263  1.00  0.00     0.037 A   
ATOM     24  C14 UNL     1      -2.305  -2.048   0.627  1.00  0.00     0.109 A   
ATOM     25  C13 UNL     1      -1.718  -3.288   0.647  1.00  0.00     0.108 A   
ATOM     26  O1  UNL     1      -3.232  -1.897   1.609  1.00  0.00    -0.316 OA  
ATOM     27  O2  UNL     1      -2.204  -4.077   1.640  1.00  0.00    -0.316 OA  
ATOM     28  C16 UNL     1      -3.198  -3.206   2.221  1.00  0.00     0.337 C   
ENDBRANCH  19  20
ENDBRANCH  16  19
ENDBRANCH  15  16
BRANCH  15  29
ATOM     29  C17 UNL     1       2.740   0.995  -0.543  1.00  0.00     0.010 C   
ATOM     30  C18 UNL     1       3.040   1.615   0.842  1.00  0.00     0.017 C   
ATOM     31  C19 UNL     1       3.532  -0.331  -0.625  1.00  0.00     0.017 C   
ATOM     32  C20 UNL     1       3.285   1.946  -1.626  1.00  0.00     0.017 C   
ENDBRANCH  15  29
ENDBRANCH   3  15
TORSDOF 7
