REMARK SMILES Cc1ccc(N([O-])[O-])c(Cn2cc([C@@H]([NH2+]Cc3ccc4c(c3)OCO4)C3CCCC3)nn2)c1
REMARK SMILES IDX 11 1 12 2 13 3 31 4 32 5 10 7 9 8 2 9 3 10 33 11 4 12 5 13
REMARK SMILES IDX 1 14 6 15 7 16 8 17 14 18 15 19 16 22 17 23 18 24 22 25
REMARK SMILES IDX 19 26 21 27 20 28 23 29 25 30 24 31 26 32 27 33 30 34 28 35
REMARK SMILES IDX 29 36
REMARK H PARENT 12 6 15 20 15 21
ROOT
ATOM     1   N2  UNL     1      -1.633   2.095  -0.719  1.00  0.00    -0.208 N   
ATOM     2   C8  UNL     1      -2.066   0.950  -0.106  1.00  0.00     0.046 A   
ATOM     3   C9  UNL     1      -1.732  -0.046  -0.999  1.00  0.00     0.127 A   
ATOM     4   N4  UNL     1      -1.309   0.536  -2.167  1.00  0.00    -0.132 NA  
ATOM     5   N5  UNL     1      -1.253   1.844  -1.983  1.00  0.00    -0.076 NA  
ATOM     6   H8  UNL     1      -2.411   0.948   0.919  1.00  0.00     0.083 HD  
ENDROOT
BRANCH   1   7
ATOM     7   C7  UNL     1      -1.306   3.363  -0.081  1.00  0.00     0.171 C   
BRANCH   7   8
ATOM     8   C6  UNL     1       0.190   3.627  -0.069  1.00  0.00     0.000 A   
ATOM     9   C2  UNL     1       2.038   5.106  -0.718  1.00  0.00    -0.051 A   
ATOM     10  C3  UNL     1       2.961   4.213  -0.159  1.00  0.00     0.005 A   
ATOM     11  C24 UNL     1       0.666   4.802  -0.679  1.00  0.00     0.011 A   
ATOM     12  C4  UNL     1       2.525   3.043   0.458  1.00  0.00     0.032 A   
ATOM     13  C5  UNL     1       1.153   2.768   0.504  1.00  0.00     0.122 A   
ATOM     14  C1  UNL     1       2.514   6.352  -1.410  1.00  0.00     0.044 C   
BRANCH  13  15
ATOM     15  N1  UNL     1       0.757   1.541   1.172  1.00  0.00     0.092 N   
ATOM     16  O1  UNL     1       0.046   1.648   2.177  1.00  0.00    -0.138 OA  
ATOM     17  O2  UNL     1       1.096   0.460   0.653  1.00  0.00    -0.138 OA  
ENDBRANCH  13  15
ENDBRANCH   7   8
ENDBRANCH   1   7
BRANCH   3  18
ATOM     18  C10 UNL     1      -1.609  -1.530  -0.840  1.00  0.00     0.117 C   
BRANCH  18  19
ATOM     19  N3  UNL     1      -0.158  -1.914  -0.683  1.00  0.00     0.249 N   
ATOM     20  H10 UNL     1       0.291  -1.262  -0.015  1.00  0.00     0.199 HD  
ATOM     21  H11 UNL     1      -0.063  -2.848  -0.275  1.00  0.00     0.199 HD  
BRANCH  19  22
ATOM     22  C11 UNL     1       0.660  -1.871  -1.931  1.00  0.00     0.164 C   
BRANCH  22  23
ATOM     23  C12 UNL     1       1.988  -2.544  -1.708  1.00  0.00    -0.002 A   
ATOM     24  C13 UNL     1       3.087  -1.805  -1.210  1.00  0.00     0.012 A   
ATOM     25  C17 UNL     1       2.129  -3.923  -1.939  1.00  0.00     0.045 A   
ATOM     26  C14 UNL     1       4.314  -2.425  -0.954  1.00  0.00     0.037 A   
ATOM     27  C16 UNL     1       3.353  -4.503  -1.678  1.00  0.00     0.109 A   
ATOM     28  C15 UNL     1       4.415  -3.776  -1.200  1.00  0.00     0.108 A   
ATOM     29  O3  UNL     1       3.656  -5.816  -1.848  1.00  0.00    -0.316 OA  
ATOM     30  O4  UNL     1       5.522  -4.540  -1.009  1.00  0.00    -0.316 OA  
ATOM     31  C18 UNL     1       5.046  -5.830  -1.451  1.00  0.00     0.337 C   
ENDBRANCH  22  23
ENDBRANCH  19  22
ENDBRANCH  18  19
BRANCH  18  32
ATOM     32  C19 UNL     1      -2.448  -2.114   0.317  1.00  0.00     0.043 C   
ATOM     33  C20 UNL     1      -2.664  -3.629   0.211  1.00  0.00     0.010 C   
ATOM     34  C23 UNL     1      -1.881  -1.980   1.734  1.00  0.00     0.010 C   
ATOM     35  C21 UNL     1      -3.147  -4.053   1.596  1.00  0.00     0.001 C   
ATOM     36  C22 UNL     1      -2.745  -2.932   2.553  1.00  0.00     0.001 C   
ENDBRANCH  18  32
ENDBRANCH   3  18
TORSDOF 8
