REMARK SMILES CC(C)C[C@H]([NH2+]Cc1ccc2c(c1)OCO2)c1cn([C@H](CO)c2ncccc2F)nn1
REMARK SMILES IDX 17 1 18 2 19 3 30 4 31 5 5 7 4 8 2 9 1 10 3 11 6 12 7 15
REMARK SMILES IDX 8 16 9 17 13 18 10 19 12 20 11 21 14 22 16 23 15 24 20 25
REMARK SMILES IDX 21 26 22 27 23 29 24 30 28 31 25 32 27 33 26 34 29 35
REMARK H PARENT 18 6 6 13 6 14 22 28
ROOT
ATOM     1   C14 UNL     1      -0.181   1.155   1.260  1.00  0.00     0.127 A   
ATOM     2   C15 UNL     1      -0.028  -0.159   0.883  1.00  0.00     0.046 A   
ATOM     3   N2  UNL     1      -1.294  -0.558   0.539  1.00  0.00    -0.201 N   
ATOM     4   N4  UNL     1      -2.163   0.469   0.665  1.00  0.00    -0.075 NA  
ATOM     5   N5  UNL     1      -1.497   1.514   1.125  1.00  0.00    -0.132 NA  
ATOM     6   H20 UNL     1       0.822  -0.824   0.822  1.00  0.00     0.083 HD  
ENDROOT
BRANCH   1   7
ATOM     7   C5  UNL     1       0.805   2.179   1.707  1.00  0.00     0.114 C   
BRANCH   7   8
ATOM     8   C4  UNL     1       0.887   2.289   3.242  1.00  0.00     0.064 C   
BRANCH   8   9
ATOM     9   C2  UNL     1       1.394   1.025   3.971  1.00  0.00    -0.012 C   
ATOM     10  C1  UNL     1       1.378   1.262   5.485  1.00  0.00     0.007 C   
ATOM     11  C3  UNL     1       2.801   0.620   3.529  1.00  0.00     0.007 C   
ENDBRANCH   8   9
ENDBRANCH   7   8
BRANCH   7  12
ATOM     12  N1  UNL     1       0.386   3.542   1.185  1.00  0.00     0.249 N   
ATOM     13  H11 UNL     1       0.577   4.270   1.879  1.00  0.00     0.199 HD  
ATOM     14  H12 UNL     1      -0.643   3.501   1.092  1.00  0.00     0.199 HD  
BRANCH  12  15
ATOM     15  C6  UNL     1       0.960   3.954  -0.126  1.00  0.00     0.164 C   
BRANCH  15  16
ATOM     16  C7  UNL     1       0.465   3.149  -1.294  1.00  0.00    -0.002 A   
ATOM     17  C8  UNL     1       1.297   2.185  -1.911  1.00  0.00     0.012 A   
ATOM     18  C12 UNL     1      -0.847   3.332  -1.767  1.00  0.00     0.045 A   
ATOM     19  C9  UNL     1       0.832   1.411  -2.981  1.00  0.00     0.037 A   
ATOM     20  C11 UNL     1      -1.274   2.554  -2.822  1.00  0.00     0.109 A   
ATOM     21  C10 UNL     1      -0.459   1.621  -3.413  1.00  0.00     0.108 A   
ATOM     22  O1  UNL     1      -2.504   2.609  -3.394  1.00  0.00    -0.316 OA  
ATOM     23  O2  UNL     1      -1.074   0.971  -4.436  1.00  0.00    -0.316 OA  
ATOM     24  C13 UNL     1      -2.380   1.589  -4.409  1.00  0.00     0.337 C   
ENDBRANCH  15  16
ENDBRANCH  12  15
ENDBRANCH   7  12
ENDBRANCH   1   7
BRANCH   3  25
ATOM     25  C16 UNL     1      -1.754  -1.862   0.072  1.00  0.00     0.177 C   
BRANCH  25  26
ATOM     26  C17 UNL     1      -1.499  -2.971   1.108  1.00  0.00     0.187 C   
BRANCH  26  27
ATOM     27  O3  UNL     1      -2.269  -2.761   2.291  1.00  0.00    -0.394 OA  
ATOM     28  H24 UNL     1      -2.177  -3.557   2.846  1.00  0.00     0.210 HD  
ENDBRANCH  26  27
ENDBRANCH  25  26
BRANCH  25  29
ATOM     29  C18 UNL     1      -1.098  -2.189  -1.252  1.00  0.00     0.101 A   
ATOM     30  N3  UNL     1       0.162  -2.716  -1.232  1.00  0.00    -0.256 NA  
ATOM     31  C22 UNL     1      -1.771  -1.938  -2.444  1.00  0.00     0.146 A   
ATOM     32  C19 UNL     1       0.729  -3.020  -2.424  1.00  0.00     0.111 A   
ATOM     33  C21 UNL     1      -1.164  -2.255  -3.651  1.00  0.00     0.043 A   
ATOM     34  C20 UNL     1       0.111  -2.810  -3.645  1.00  0.00     0.023 A   
ATOM     35  F1  UNL     1      -2.997  -1.400  -2.442  1.00  0.00    -0.205 F   
ENDBRANCH  25  29
ENDBRANCH   3  25
TORSDOF 10
