REMARK SMILES CC(C)C[C@H]([NH2+]Cc1ccc2c(c1)OCO2)c1cn([C@@H](CO)c2ncccc2F)nn1
REMARK SMILES IDX 17 1 18 2 19 3 30 4 31 5 5 7 4 8 2 9 1 10 3 11 6 12 7 15
REMARK SMILES IDX 8 16 9 17 13 18 10 19 12 20 11 21 14 22 16 23 15 24 20 25
REMARK SMILES IDX 21 26 22 27 23 29 24 30 28 31 25 32 27 33 26 34 29 35
REMARK H PARENT 18 6 6 13 6 14 22 28
ROOT
ATOM     1   C14 UNL     1       1.674  -0.347   1.044  1.00  0.00     0.127 A   
ATOM     2   C15 UNL     1       0.701  -1.315   0.956  1.00  0.00     0.046 A   
ATOM     3   N2  UNL     1       0.970  -2.161   1.998  1.00  0.00    -0.201 N   
ATOM     4   N4  UNL     1       2.042  -1.726   2.693  1.00  0.00    -0.075 NA  
ATOM     5   N5  UNL     1       2.483  -0.621   2.115  1.00  0.00    -0.132 NA  
ATOM     6   H20 UNL     1      -0.152  -1.453   0.304  1.00  0.00     0.083 HD  
ENDROOT
BRANCH   1   7
ATOM     7   C5  UNL     1       1.848   0.927   0.291  1.00  0.00     0.114 C   
BRANCH   7   8
ATOM     8   C4  UNL     1       3.175   1.002  -0.493  1.00  0.00     0.064 C   
BRANCH   8   9
ATOM     9   C2  UNL     1       3.172   0.296  -1.868  1.00  0.00    -0.012 C   
ATOM     10  C1  UNL     1       4.461   0.646  -2.620  1.00  0.00     0.007 C   
ATOM     11  C3  UNL     1       3.038  -1.223  -1.781  1.00  0.00     0.007 C   
ENDBRANCH   8   9
ENDBRANCH   7   8
BRANCH   7  12
ATOM     12  N1  UNL     1       1.860   2.084   1.279  1.00  0.00     0.249 N   
ATOM     13  H11 UNL     1       2.625   1.892   1.940  1.00  0.00     0.199 HD  
ATOM     14  H12 UNL     1       2.088   2.955   0.791  1.00  0.00     0.199 HD  
BRANCH  12  15
ATOM     15  C6  UNL     1       0.617   2.290   2.085  1.00  0.00     0.164 C   
BRANCH  15  16
ATOM     16  C7  UNL     1      -0.599   2.576   1.249  1.00  0.00    -0.002 A   
ATOM     17  C8  UNL     1      -1.661   1.641   1.196  1.00  0.00     0.012 A   
ATOM     18  C12 UNL     1      -0.686   3.763   0.500  1.00  0.00     0.045 A   
ATOM     19  C9  UNL     1      -2.787   1.875   0.400  1.00  0.00     0.037 A   
ATOM     20  C11 UNL     1      -1.810   3.961  -0.275  1.00  0.00     0.109 A   
ATOM     21  C10 UNL     1      -2.830   3.044  -0.326  1.00  0.00     0.108 A   
ATOM     22  O1  UNL     1      -2.045   5.045  -1.061  1.00  0.00    -0.316 OA  
ATOM     23  O2  UNL     1      -3.837   3.434  -1.149  1.00  0.00    -0.316 OA  
ATOM     24  C13 UNL     1      -3.352   4.721  -1.589  1.00  0.00     0.337 C   
ENDBRANCH  15  16
ENDBRANCH  12  15
ENDBRANCH   7  12
ENDBRANCH   1   7
BRANCH   3  25
ATOM     25  C16 UNL     1       0.195  -3.299   2.483  1.00  0.00     0.177 C   
BRANCH  25  26
ATOM     26  C17 UNL     1      -1.021  -2.817   3.296  1.00  0.00     0.187 C   
BRANCH  26  27
ATOM     27  O3  UNL     1      -1.931  -2.021   2.526  1.00  0.00    -0.394 OA  
ATOM     28  H24 UNL     1      -2.268  -2.620   1.822  1.00  0.00     0.210 HD  
ENDBRANCH  26  27
ENDBRANCH  25  26
BRANCH  25  29
ATOM     29  C18 UNL     1      -0.174  -4.225   1.342  1.00  0.00     0.101 A   
ATOM     30  N3  UNL     1      -1.400  -4.081   0.756  1.00  0.00    -0.256 NA  
ATOM     31  C22 UNL     1       0.750  -5.167   0.897  1.00  0.00     0.146 A   
ATOM     32  C19 UNL     1      -1.699  -4.918  -0.268  1.00  0.00     0.111 A   
ATOM     33  C21 UNL     1       0.420  -6.006  -0.158  1.00  0.00     0.043 A   
ATOM     34  C20 UNL     1      -0.831  -5.884  -0.753  1.00  0.00     0.023 A   
ATOM     35  F1  UNL     1       1.953  -5.269   1.475  1.00  0.00    -0.205 F   
ENDBRANCH  25  29
ENDBRANCH   3  25
TORSDOF 10
