REMARK SMILES CC(C)(C)[C@H]([NH2+]Cc1ccc2c(c1)OCO2)c1cn(Cc2cnoc2C2CC2)nn1
REMARK SMILES IDX 17 1 18 2 19 3 29 4 30 5 5 7 2 8 1 9 3 10 4 11 6 12 7 15
REMARK SMILES IDX 8 16 9 17 13 18 10 19 12 20 11 21 14 22 16 23 15 24 20 25
REMARK SMILES IDX 21 26 22 27 25 28 23 29 24 30 26 31 27 32 28 33
REMARK H PARENT 18 6 6 13 6 14
ROOT
ATOM     1   C14 UNL     1       1.300   1.004   0.163  1.00  0.00     0.127 A   
ATOM     2   C15 UNL     1       0.805   0.705   1.414  1.00  0.00     0.046 A   
ATOM     3   N2  UNL     1       0.978   1.863   2.121  1.00  0.00    -0.208 N   
ATOM     4   N4  UNL     1       1.564   2.809   1.361  1.00  0.00    -0.076 NA  
ATOM     5   N5  UNL     1       1.746   2.303   0.154  1.00  0.00    -0.132 NA  
ATOM     6   H20 UNL     1       0.330  -0.169   1.838  1.00  0.00     0.083 HD  
ENDROOT
BRANCH   1   7
ATOM     7   C5  UNL     1       1.306   0.236  -1.125  1.00  0.00     0.120 C   
BRANCH   7   8
ATOM     8   C2  UNL     1       2.652  -0.497  -1.441  1.00  0.00     0.010 C   
ATOM     9   C1  UNL     1       3.854   0.463  -1.548  1.00  0.00     0.017 C   
ATOM     10  C3  UNL     1       2.955  -1.530  -0.332  1.00  0.00     0.017 C   
ATOM     11  C4  UNL     1       2.533  -1.281  -2.768  1.00  0.00     0.017 C   
ENDBRANCH   7   8
BRANCH   7  12
ATOM     12  N1  UNL     1       0.942   1.212  -2.233  1.00  0.00     0.250 N   
ATOM     13  H11 UNL     1       1.633   1.201  -2.988  1.00  0.00     0.199 HD  
ATOM     14  H12 UNL     1       1.035   2.155  -1.817  1.00  0.00     0.199 HD  
BRANCH  12  15
ATOM     15  C6  UNL     1      -0.429   1.094  -2.807  1.00  0.00     0.164 C   
BRANCH  15  16
ATOM     16  C7  UNL     1      -1.537   1.159  -1.789  1.00  0.00    -0.002 A   
ATOM     17  C8  UNL     1      -1.790   2.346  -1.062  1.00  0.00     0.012 A   
ATOM     18  C12 UNL     1      -2.320   0.018  -1.539  1.00  0.00     0.045 A   
ATOM     19  C9  UNL     1      -2.807   2.397  -0.100  1.00  0.00     0.037 A   
ATOM     20  C11 UNL     1      -3.310   0.102  -0.583  1.00  0.00     0.109 A   
ATOM     21  C10 UNL     1      -3.550   1.259   0.115  1.00  0.00     0.108 A   
ATOM     22  O1  UNL     1      -4.141  -0.909  -0.218  1.00  0.00    -0.316 OA  
ATOM     23  O2  UNL     1      -4.572   1.123   1.001  1.00  0.00    -0.316 OA  
ATOM     24  C13 UNL     1      -4.978  -0.239   0.753  1.00  0.00     0.337 C   
ENDBRANCH  15  16
ENDBRANCH  12  15
ENDBRANCH   7  12
ENDBRANCH   1   7
BRANCH   3  25
ATOM     25  C16 UNL     1       0.571   2.166   3.486  1.00  0.00     0.173 C   
BRANCH  25  26
ATOM     26  C17 UNL     1      -0.755   2.832   3.487  1.00  0.00     0.021 A   
ATOM     27  C18 UNL     1      -1.078   4.112   2.974  1.00  0.00     0.149 A   
ATOM     28  C19 UNL     1      -1.960   2.378   3.982  1.00  0.00     0.094 A   
ATOM     29  N3  UNL     1      -2.373   4.399   3.106  1.00  0.00    -0.137 NA  
ATOM     30  O3  UNL     1      -2.927   3.308   3.753  1.00  0.00    -0.218 OA  
BRANCH  28  31
ATOM     31  C20 UNL     1      -2.208   1.028   4.706  1.00  0.00     0.046 C   
ATOM     32  C21 UNL     1      -2.338  -0.232   3.888  1.00  0.00     0.011 C   
ATOM     33  C22 UNL     1      -3.548   0.357   4.555  1.00  0.00     0.011 C   
ENDBRANCH  28  31
ENDBRANCH  25  26
ENDBRANCH   3  25
TORSDOF 8
