REMARK SMILES Cc1ccc(O)c(Cn2cc([C@@H]([NH2+]Cc3ccc4c(c3)OCO4)C(C)(C)C)nn2)c1
REMARK SMILES IDX 9 1 10 2 11 3 28 4 29 5 8 7 7 8 2 9 3 10 30 11 4 12 5 13
REMARK SMILES IDX 1 14 6 15 12 17 13 18 14 21 15 22 16 23 20 24 17 25 19 26
REMARK SMILES IDX 18 27 21 28 23 29 22 30 24 31 25 32 26 33 27 34
REMARK H PARENT 10 6 6 16 13 19 13 20
ROOT
ATOM     1   N1  UNL     1       1.290   0.621  -2.809  1.00  0.00    -0.208 N   
ATOM     2   C8  UNL     1       2.150   0.058  -1.905  1.00  0.00     0.046 A   
ATOM     3   C9  UNL     1       1.365  -0.831  -1.206  1.00  0.00     0.127 A   
ATOM     4   N3  UNL     1       0.084  -0.781  -1.694  1.00  0.00    -0.132 NA  
ATOM     5   N4  UNL     1       0.050   0.108  -2.673  1.00  0.00    -0.076 NA  
ATOM     6   H9  UNL     1       3.188   0.352  -1.843  1.00  0.00     0.083 HD  
ENDROOT
BRANCH   1   7
ATOM     7   C7  UNL     1       1.573   1.629  -3.814  1.00  0.00     0.172 C   
BRANCH   7   8
ATOM     8   C6  UNL     1       1.536   3.011  -3.215  1.00  0.00     0.002 A   
ATOM     9   C2  UNL     1       0.260   4.998  -2.589  1.00  0.00    -0.051 A   
ATOM     10  C3  UNL     1       1.432   5.585  -2.102  1.00  0.00     0.006 A   
ATOM     11  C23 UNL     1       0.322   3.716  -3.152  1.00  0.00     0.011 A   
ATOM     12  C4  UNL     1       2.644   4.894  -2.150  1.00  0.00     0.034 A   
ATOM     13  C5  UNL     1       2.686   3.615  -2.699  1.00  0.00     0.076 A   
ATOM     14  C1  UNL     1      -1.035   5.757  -2.570  1.00  0.00     0.044 C   
BRANCH  13  15
ATOM     15  O1  UNL     1       3.866   2.926  -2.738  1.00  0.00    -0.361 OA  
ATOM     16  H6  UNL     1       4.588   3.551  -2.541  1.00  0.00     0.218 HD  
ENDBRANCH  13  15
ENDBRANCH   7   8
ENDBRANCH   1   7
BRANCH   3  17
ATOM     17  C10 UNL     1       1.666  -1.701  -0.024  1.00  0.00     0.120 C   
BRANCH  17  18
ATOM     18  N2  UNL     1       0.447  -1.728   0.869  1.00  0.00     0.250 N   
ATOM     19  H11 UNL     1      -0.364  -1.876   0.250  1.00  0.00     0.199 HD  
ATOM     20  H12 UNL     1       0.454  -2.513   1.524  1.00  0.00     0.199 HD  
BRANCH  18  21
ATOM     21  C11 UNL     1       0.187  -0.472   1.629  1.00  0.00     0.164 C   
BRANCH  21  22
ATOM     22  C12 UNL     1      -1.097  -0.587   2.400  1.00  0.00    -0.002 A   
ATOM     23  C13 UNL     1      -2.327  -0.267   1.778  1.00  0.00     0.012 A   
ATOM     24  C17 UNL     1      -1.091  -1.066   3.721  1.00  0.00     0.045 A   
ATOM     25  C14 UNL     1      -3.538  -0.411   2.464  1.00  0.00     0.037 A   
ATOM     26  C16 UNL     1      -2.302  -1.196   4.368  1.00  0.00     0.109 A   
ATOM     27  C15 UNL     1      -3.491  -0.878   3.759  1.00  0.00     0.108 A   
ATOM     28  O2  UNL     1      -2.473  -1.644   5.640  1.00  0.00    -0.316 OA  
ATOM     29  O3  UNL     1      -4.560  -1.082   4.571  1.00  0.00    -0.316 OA  
ATOM     30  C18 UNL     1      -3.910  -1.549   5.772  1.00  0.00     0.337 C   
ENDBRANCH  21  22
ENDBRANCH  18  21
ENDBRANCH  17  18
BRANCH  17  31
ATOM     31  C19 UNL     1       2.105  -3.161  -0.393  1.00  0.00     0.010 C   
ATOM     32  C20 UNL     1       3.337  -3.128  -1.326  1.00  0.00     0.017 C   
ATOM     33  C21 UNL     1       0.988  -3.960  -1.095  1.00  0.00     0.017 C   
ATOM     34  C22 UNL     1       2.527  -3.933   0.879  1.00  0.00     0.017 C   
ENDBRANCH  17  31
ENDBRANCH   3  17
TORSDOF 8
