REMARK SMILES Cc1ccc(N([O-])[O-])c(Cn2cc([C@@H]([NH2+]Cc3ccc4c(c3)OCO4)C3CCCCC3)nn2)c1
REMARK SMILES IDX 11 1 12 2 13 3 32 4 33 5 10 7 9 8 2 9 3 10 34 11 4 12 5 13
REMARK SMILES IDX 1 14 6 15 7 16 8 17 14 18 15 19 16 22 17 23 18 24 22 25
REMARK SMILES IDX 19 26 21 27 20 28 23 29 25 30 24 31 26 32 27 33 31 34 28 35
REMARK SMILES IDX 30 36 29 37
REMARK H PARENT 12 6 15 20 15 21
ROOT
ATOM     1   N2  UNL     1       0.240   0.057   2.652  1.00  0.00    -0.208 N   
ATOM     2   C8  UNL     1       0.377   0.584   1.397  1.00  0.00     0.046 A   
ATOM     3   C9  UNL     1      -0.778   0.206   0.750  1.00  0.00     0.127 A   
ATOM     4   N4  UNL     1      -1.572  -0.496   1.619  1.00  0.00    -0.132 NA  
ATOM     5   N5  UNL     1      -0.943  -0.574   2.780  1.00  0.00    -0.076 NA  
ATOM     6   H8  UNL     1       1.265   1.117   1.084  1.00  0.00     0.083 HD  
ENDROOT
BRANCH   1   7
ATOM     7   C7  UNL     1       1.211   0.059   3.738  1.00  0.00     0.171 C   
BRANCH   7   8
ATOM     8   C6  UNL     1       1.574  -1.334   4.211  1.00  0.00     0.000 A   
ATOM     9   C2  UNL     1       1.662  -2.934   6.071  1.00  0.00    -0.051 A   
ATOM     10  C3  UNL     1       2.206  -3.904   5.221  1.00  0.00     0.005 A   
ATOM     11  C25 UNL     1       1.363  -1.657   5.565  1.00  0.00     0.011 A   
ATOM     12  C4  UNL     1       2.432  -3.615   3.877  1.00  0.00     0.032 A   
ATOM     13  C5  UNL     1       2.122  -2.340   3.388  1.00  0.00     0.122 A   
ATOM     14  C1  UNL     1       1.446  -3.236   7.527  1.00  0.00     0.044 C   
BRANCH  13  15
ATOM     15  N1  UNL     1       2.386  -2.093   1.979  1.00  0.00     0.092 N   
ATOM     16  O1  UNL     1       1.865  -2.857   1.154  1.00  0.00    -0.138 OA  
ATOM     17  O2  UNL     1       3.071  -1.103   1.694  1.00  0.00    -0.138 OA  
ENDBRANCH  13  15
ENDBRANCH   7   8
ENDBRANCH   1   7
BRANCH   3  18
ATOM     18  C10 UNL     1      -1.205   0.364  -0.676  1.00  0.00     0.117 C   
BRANCH  18  19
ATOM     19  N3  UNL     1      -1.722  -0.974  -1.165  1.00  0.00     0.249 N   
ATOM     20  H10 UNL     1      -2.246  -0.879  -2.036  1.00  0.00     0.199 HD  
ATOM     21  H11 UNL     1      -2.383  -1.304  -0.447  1.00  0.00     0.199 HD  
BRANCH  19  22
ATOM     22  C11 UNL     1      -0.696  -2.046  -1.356  1.00  0.00     0.164 C   
BRANCH  22  23
ATOM     23  C12 UNL     1       0.191  -1.784  -2.541  1.00  0.00    -0.002 A   
ATOM     24  C13 UNL     1      -0.302  -1.956  -3.858  1.00  0.00     0.012 A   
ATOM     25  C17 UNL     1       1.507  -1.329  -2.351  1.00  0.00     0.045 A   
ATOM     26  C14 UNL     1       0.499  -1.673  -4.969  1.00  0.00     0.037 A   
ATOM     27  C16 UNL     1       2.268  -1.053  -3.468  1.00  0.00     0.109 A   
ATOM     28  C15 UNL     1       1.779  -1.220  -4.739  1.00  0.00     0.108 A   
ATOM     29  O3  UNL     1       3.548  -0.597  -3.460  1.00  0.00    -0.316 OA  
ATOM     30  O4  UNL     1       2.689  -0.894  -5.693  1.00  0.00    -0.316 OA  
ATOM     31  C18 UNL     1       3.823  -0.527  -4.878  1.00  0.00     0.337 C   
ENDBRANCH  22  23
ENDBRANCH  19  22
ENDBRANCH  18  19
BRANCH  18  32
ATOM     32  C19 UNL     1      -2.316   1.444  -0.853  1.00  0.00     0.043 C   
ATOM     33  C20 UNL     1      -1.866   2.803  -0.265  1.00  0.00     0.010 C   
ATOM     34  C24 UNL     1      -2.710   1.632  -2.336  1.00  0.00     0.010 C   
ATOM     35  C21 UNL     1      -2.896   3.909  -0.479  1.00  0.00     0.001 C   
ATOM     36  C23 UNL     1      -3.730   2.750  -2.538  1.00  0.00     0.001 C   
ATOM     37  C22 UNL     1      -3.250   4.068  -1.949  1.00  0.00     0.000 C   
ENDBRANCH  18  32
ENDBRANCH   3  18
TORSDOF 8
