REMARK SMILES Cc1ccc(-n2cc([C@@H]([NH2+]Cc3ccc4c(c3)OCO4)C3CCCC3)nn2)cc1N([O-])[O-]
REMARK SMILES IDX 6 1 7 2 8 3 26 4 27 5 5 6 2 7 3 8 29 9 4 10 28 11 1 12 30 13
REMARK SMILES IDX 31 14 32 15 9 16 10 17 11 20 12 21 13 22 17 23 14 24 16 25
REMARK SMILES IDX 15 26 18 27 20 28 19 29 21 30 22 31 25 32 23 33 24 34
REMARK H PARENT 10 18 10 19
ROOT
ATOM     1   N1  UNL     1      -1.213  -1.770  -1.433  1.00  0.00    -0.181 N   
ATOM     2   C6  UNL     1      -0.480  -0.718  -0.919  1.00  0.00     0.135 A   
ATOM     3   C7  UNL     1       0.477  -1.306  -0.121  1.00  0.00     0.127 A   
ATOM     4   N3  UNL     1       0.306  -2.661  -0.144  1.00  0.00    -0.131 NA  
ATOM     5   N4  UNL     1      -0.726  -2.930  -0.924  1.00  0.00    -0.071 NA  
ENDROOT
BRANCH   1   6
ATOM     6   C5  UNL     1      -2.315  -1.747  -2.325  1.00  0.00     0.060 A   
ATOM     7   C2  UNL     1      -4.537  -1.732  -4.089  1.00  0.00    -0.022 A   
ATOM     8   C3  UNL     1      -3.892  -0.539  -3.727  1.00  0.00     0.007 A   
ATOM     9   C23 UNL     1      -4.030  -2.933  -3.565  1.00  0.00     0.122 A   
ATOM     10  C4  UNL     1      -2.795  -0.541  -2.853  1.00  0.00     0.026 A   
ATOM     11  C22 UNL     1      -2.934  -2.951  -2.686  1.00  0.00     0.057 A   
ATOM     12  C1  UNL     1      -5.714  -1.674  -5.024  1.00  0.00     0.046 C   
BRANCH   9  13
ATOM     13  N5  UNL     1      -4.632  -4.218  -3.904  1.00  0.00     0.092 N   
ATOM     14  O3  UNL     1      -4.921  -4.965  -2.960  1.00  0.00    -0.138 OA  
ATOM     15  O4  UNL     1      -4.787  -4.477  -5.104  1.00  0.00    -0.138 OA  
ENDBRANCH   9  13
ENDBRANCH   1   6
BRANCH   3  16
ATOM     16  C8  UNL     1       1.560  -0.715   0.726  1.00  0.00     0.117 C   
BRANCH  16  17
ATOM     17  N2  UNL     1       1.756  -1.548   1.978  1.00  0.00     0.249 N   
ATOM     18  H8  UNL     1       2.608  -1.264   2.469  1.00  0.00     0.199 HD  
ATOM     19  H9  UNL     1       1.897  -2.519   1.664  1.00  0.00     0.199 HD  
BRANCH  17  20
ATOM     20  C9  UNL     1       0.627  -1.559   2.958  1.00  0.00     0.164 C   
BRANCH  20  21
ATOM     21  C10 UNL     1       0.355  -0.205   3.553  1.00  0.00    -0.002 A   
ATOM     22  C11 UNL     1      -0.834   0.491   3.225  1.00  0.00     0.012 A   
ATOM     23  C15 UNL     1       1.289   0.391   4.418  1.00  0.00     0.045 A   
ATOM     24  C12 UNL     1      -1.087   1.765   3.744  1.00  0.00     0.037 A   
ATOM     25  C14 UNL     1       1.008   1.649   4.910  1.00  0.00     0.109 A   
ATOM     26  C13 UNL     1      -0.145   2.317   4.583  1.00  0.00     0.108 A   
ATOM     27  O1  UNL     1       1.804   2.363   5.748  1.00  0.00    -0.316 OA  
ATOM     28  O2  UNL     1      -0.223   3.537   5.174  1.00  0.00    -0.316 OA  
ATOM     29  C16 UNL     1       0.997   3.548   5.946  1.00  0.00     0.337 C   
ENDBRANCH  20  21
ENDBRANCH  17  20
ENDBRANCH  16  17
BRANCH  16  30
ATOM     30  C17 UNL     1       2.907  -0.653  -0.023  1.00  0.00     0.043 C   
ATOM     31  C18 UNL     1       2.875   0.236  -1.271  1.00  0.00     0.010 C   
ATOM     32  C21 UNL     1       4.048  -0.021   0.786  1.00  0.00     0.010 C   
ATOM     33  C19 UNL     1       4.346   0.446  -1.595  1.00  0.00     0.001 C   
ATOM     34  C20 UNL     1       5.053   0.493  -0.245  1.00  0.00     0.001 C   
ENDBRANCH  16  30
ENDBRANCH   3  16
TORSDOF 7
