REMARK SMILES COc1cccc(CCn2cc([C@@H]([NH2+]Cc3ccc4c(c3)OCO4)C(C)(C)C)nn2)c1O
REMARK SMILES IDX 10 1 11 2 12 3 29 4 30 5 9 7 8 8 7 9 3 10 4 11 31 12 5 13
REMARK SMILES IDX 6 14 2 15 1 16 32 17 13 19 14 20 15 23 16 24 17 25 21 26
REMARK SMILES IDX 18 27 20 28 19 29 22 30 24 31 23 32 25 33 26 34 27 35 28 36
REMARK H PARENT 11 6 32 18 14 21 14 22
ROOT
ATOM     1   N1  UNL     1      -0.866   2.638  -1.073  1.00  0.00    -0.212 N   
ATOM     2   C9  UNL     1      -0.026   1.969  -0.230  1.00  0.00     0.045 A   
ATOM     3   C10 UNL     1       0.974   1.511  -1.059  1.00  0.00     0.127 A   
ATOM     4   N3  UNL     1       0.724   1.928  -2.342  1.00  0.00    -0.132 NA  
ATOM     5   N4  UNL     1      -0.398   2.626  -2.335  1.00  0.00    -0.076 NA  
ATOM     6   H11 UNL     1      -0.235   1.850   0.823  1.00  0.00     0.083 HD  
ENDROOT
BRANCH   1   7
ATOM     7   C8  UNL     1      -2.112   3.301  -0.756  1.00  0.00     0.139 C   
BRANCH   7   8
ATOM     8   C7  UNL     1      -3.330   2.396  -0.929  1.00  0.00     0.060 C   
BRANCH   8   9
ATOM     9   C6  UNL     1      -3.448   1.339   0.146  1.00  0.00    -0.014 A   
ATOM     10  C2  UNL     1      -3.248  -0.981   0.914  1.00  0.00     0.105 A   
ATOM     11  C3  UNL     1      -3.728  -0.612   2.167  1.00  0.00     0.036 A   
ATOM     12  C24 UNL     1      -3.103   0.002  -0.079  1.00  0.00     0.105 A   
ATOM     13  C4  UNL     1      -4.067   0.722   2.416  1.00  0.00     0.003 A   
ATOM     14  C5  UNL     1      -3.931   1.688   1.415  1.00  0.00     0.006 A   
BRANCH  10  15
ATOM     15  O1  UNL     1      -2.882  -2.248   0.528  1.00  0.00    -0.347 OA  
ATOM     16  C1  UNL     1      -3.139  -3.293   1.463  1.00  0.00     0.203 C   
ENDBRANCH  10  15
BRANCH  12  17
ATOM     17  O4  UNL     1      -2.614  -0.377  -1.305  1.00  0.00    -0.358 OA  
ATOM     18  H31 UNL     1      -2.725  -1.349  -1.315  1.00  0.00     0.218 HD  
ENDBRANCH  12  17
ENDBRANCH   8   9
ENDBRANCH   7   8
ENDBRANCH   1   7
BRANCH   3  19
ATOM     19  C11 UNL     1       2.128   0.597  -0.799  1.00  0.00     0.120 C   
BRANCH  19  20
ATOM     20  N2  UNL     1       2.218  -0.382  -1.954  1.00  0.00     0.250 N   
ATOM     21  H13 UNL     1       2.101   0.187  -2.806  1.00  0.00     0.199 HD  
ATOM     22  H14 UNL     1       3.138  -0.821  -2.008  1.00  0.00     0.199 HD  
BRANCH  20  23
ATOM     23  C12 UNL     1       1.167  -1.441  -1.990  1.00  0.00     0.164 C   
BRANCH  23  24
ATOM     24  C13 UNL     1       1.398  -2.510  -0.957  1.00  0.00    -0.002 A   
ATOM     25  C14 UNL     1       2.412  -3.481  -1.146  1.00  0.00     0.012 A   
ATOM     26  C18 UNL     1       0.636  -2.528   0.224  1.00  0.00     0.045 A   
ATOM     27  C15 UNL     1       2.667  -4.451  -0.171  1.00  0.00     0.037 A   
ATOM     28  C17 UNL     1       0.915  -3.497   1.166  1.00  0.00     0.109 A   
ATOM     29  C16 UNL     1       1.903  -4.430   0.975  1.00  0.00     0.108 A   
ATOM     30  O2  UNL     1       0.282  -3.648   2.360  1.00  0.00    -0.316 OA  
ATOM     31  O3  UNL     1       2.017  -5.287   2.023  1.00  0.00    -0.316 OA  
ATOM     32  C19 UNL     1       0.978  -4.796   2.897  1.00  0.00     0.337 C   
ENDBRANCH  23  24
ENDBRANCH  20  23
ENDBRANCH  19  20
BRANCH  19  33
ATOM     33  C20 UNL     1       3.500   1.327  -0.590  1.00  0.00     0.010 C   
ATOM     34  C21 UNL     1       3.995   2.052  -1.857  1.00  0.00     0.017 C   
ATOM     35  C22 UNL     1       4.584   0.310  -0.159  1.00  0.00     0.017 C   
ATOM     36  C23 UNL     1       3.380   2.365   0.548  1.00  0.00     0.017 C   
ENDBRANCH  19  33
ENDBRANCH   3  19
TORSDOF 10
