REMARK SMILES CCOc1ccc(Cn2cc([C@@H]([NH2+]Cc3ccc4c(c3)OCO4)C(C)(C)C)nn2)cc1
REMARK SMILES IDX 9 1 10 2 11 3 28 4 29 5 8 7 7 8 4 9 5 10 31 11 6 12 30 13
REMARK SMILES IDX 3 14 2 15 1 16 12 17 13 18 14 21 15 22 16 23 20 24 17 25
REMARK SMILES IDX 19 26 18 27 21 28 23 29 22 30 24 31 25 32 26 33 27 34
REMARK H PARENT 10 6 13 19 13 20
ROOT
ATOM     1   N1  UNL     1      -1.919  -1.874   1.220  1.00  0.00    -0.208 N   
ATOM     2   C8  UNL     1      -0.792  -1.205   1.616  1.00  0.00     0.046 A   
ATOM     3   C9  UNL     1       0.014  -1.222   0.498  1.00  0.00     0.127 A   
ATOM     4   N3  UNL     1      -0.601  -1.955  -0.486  1.00  0.00    -0.132 NA  
ATOM     5   N4  UNL     1      -1.772  -2.364  -0.027  1.00  0.00    -0.076 NA  
ATOM     6   H10 UNL     1      -0.700  -0.758   2.596  1.00  0.00     0.083 HD  
ENDROOT
BRANCH   1   7
ATOM     7   C7  UNL     1      -3.154  -2.082   1.961  1.00  0.00     0.169 C   
BRANCH   7   8
ATOM     8   C6  UNL     1      -3.859  -0.774   2.220  1.00  0.00    -0.028 A   
ATOM     9   C3  UNL     1      -5.149   1.688   2.698  1.00  0.00     0.075 A   
ATOM     10  C4  UNL     1      -5.017   1.196   1.398  1.00  0.00     0.034 A   
ATOM     11  C24 UNL     1      -4.641   0.943   3.761  1.00  0.00     0.034 A   
ATOM     12  C5  UNL     1      -4.384  -0.025   1.157  1.00  0.00     0.008 A   
ATOM     13  C23 UNL     1      -4.000  -0.280   3.525  1.00  0.00     0.008 A   
BRANCH   9  14
ATOM     14  O1  UNL     1      -5.782   2.895   2.788  1.00  0.00    -0.346 OA  
BRANCH  14  15
ATOM     15  C2  UNL     1      -6.044   3.401   4.097  1.00  0.00     0.164 C   
ATOM     16  C1  UNL     1      -6.787   4.717   3.950  1.00  0.00     0.035 C   
ENDBRANCH  14  15
ENDBRANCH   9  14
ENDBRANCH   7   8
ENDBRANCH   1   7
BRANCH   3  17
ATOM     17  C10 UNL     1       1.376  -0.647   0.243  1.00  0.00     0.120 C   
BRANCH  17  18
ATOM     18  N2  UNL     1       2.095  -1.535  -0.747  1.00  0.00     0.250 N   
ATOM     19  H12 UNL     1       1.411  -1.761  -1.486  1.00  0.00     0.199 HD  
ATOM     20  H13 UNL     1       2.870  -1.060  -1.216  1.00  0.00     0.199 HD  
BRANCH  18  21
ATOM     21  C11 UNL     1       2.589  -2.831  -0.203  1.00  0.00     0.164 C   
BRANCH  21  22
ATOM     22  C12 UNL     1       3.192  -3.661  -1.300  1.00  0.00    -0.002 A   
ATOM     23  C13 UNL     1       2.369  -4.499  -2.090  1.00  0.00     0.012 A   
ATOM     24  C17 UNL     1       4.564  -3.568  -1.588  1.00  0.00     0.045 A   
ATOM     25  C14 UNL     1       2.905  -5.246  -3.145  1.00  0.00     0.037 A   
ATOM     26  C16 UNL     1       5.060  -4.316  -2.636  1.00  0.00     0.109 A   
ATOM     27  C15 UNL     1       4.255  -5.132  -3.392  1.00  0.00     0.108 A   
ATOM     28  O2  UNL     1       6.355  -4.340  -3.046  1.00  0.00    -0.316 OA  
ATOM     29  O3  UNL     1       4.942  -5.774  -4.372  1.00  0.00    -0.316 OA  
ATOM     30  C18 UNL     1       6.281  -5.288  -4.135  1.00  0.00     0.337 C   
ENDBRANCH  21  22
ENDBRANCH  18  21
ENDBRANCH  17  18
BRANCH  17  31
ATOM     31  C19 UNL     1       1.360   0.836  -0.273  1.00  0.00     0.010 C   
ATOM     32  C20 UNL     1       2.802   1.385  -0.377  1.00  0.00     0.017 C   
ATOM     33  C21 UNL     1       0.609   1.745   0.727  1.00  0.00     0.017 C   
ATOM     34  C22 UNL     1       0.687   0.977  -1.653  1.00  0.00     0.017 C   
ENDBRANCH  17  31
ENDBRANCH   3  17
TORSDOF 9
