REMARK SMILES OC[C@H](c1ccc(O)cc1)n1cc([C@@H]([NH2+]Cc2ccc3c(c2)OCO3)C2CCCC2)nn1
REMARK SMILES IDX 11 1 12 2 13 3 31 4 32 5 3 7 2 8 1 9 4 11 5 12 10 13 6 14
REMARK SMILES IDX 9 15 7 16 8 17 14 19 15 20 16 23 17 24 18 25 22 26 19 27
REMARK SMILES IDX 21 28 20 29 23 30 25 31 24 32 26 33 27 34 30 35 28 36 29 37
REMARK H PARENT 12 6 1 10 8 18 15 21 15 22
ROOT
ATOM     1   N1  UNL     1       0.065   2.843  -0.331  1.00  0.00    -0.202 N   
ATOM     2   C9  UNL     1       0.502   1.551  -0.199  1.00  0.00     0.046 A   
ATOM     3   C10 UNL     1      -0.561   0.788  -0.625  1.00  0.00     0.127 A   
ATOM     4   N3  UNL     1      -1.596   1.617  -0.974  1.00  0.00    -0.132 NA  
ATOM     5   N4  UNL     1      -1.205   2.868  -0.791  1.00  0.00    -0.075 NA  
ATOM     6   H10 UNL     1       1.489   1.315   0.173  1.00  0.00     0.083 HD  
ENDROOT
BRANCH   1   7
ATOM     7   C2  UNL     1       0.760   4.088  -0.004  1.00  0.00     0.155 C   
BRANCH   7   8
ATOM     8   C1  UNL     1       1.793   4.449  -1.090  1.00  0.00     0.185 C   
BRANCH   8   9
ATOM     9   O1  UNL     1       2.779   3.434  -1.289  1.00  0.00    -0.394 OA  
ATOM     10  H1  UNL     1       3.386   3.760  -1.980  1.00  0.00     0.210 HD  
ENDBRANCH   8   9
ENDBRANCH   7   8
BRANCH   7  11
ATOM     11  C3  UNL     1       1.232   4.067   1.447  1.00  0.00    -0.023 A   
ATOM     12  C4  UNL     1       0.275   4.216   2.470  1.00  0.00     0.008 A   
ATOM     13  C8  UNL     1       2.574   3.879   1.817  1.00  0.00     0.008 A   
ATOM     14  C5  UNL     1       0.650   4.178   3.814  1.00  0.00     0.033 A   
ATOM     15  C7  UNL     1       2.949   3.845   3.165  1.00  0.00     0.033 A   
ATOM     16  C6  UNL     1       1.983   3.994   4.151  1.00  0.00     0.071 A   
BRANCH  16  17
ATOM     17  O2  UNL     1       2.303   3.962   5.475  1.00  0.00    -0.361 OA  
ATOM     18  H7  UNL     1       3.269   3.903   5.567  1.00  0.00     0.218 HD  
ENDBRANCH  16  17
ENDBRANCH   7  11
ENDBRANCH   1   7
BRANCH   3  19
ATOM     19  C11 UNL     1      -0.749  -0.696  -0.671  1.00  0.00     0.117 C   
BRANCH  19  20
ATOM     20  N2  UNL     1      -2.208  -0.973  -0.377  1.00  0.00     0.249 N   
ATOM     21  H12 UNL     1      -2.449  -0.391   0.436  1.00  0.00     0.199 HD  
ATOM     22  H13 UNL     1      -2.761  -0.559  -1.139  1.00  0.00     0.199 HD  
BRANCH  20  23
ATOM     23  C12 UNL     1      -2.640  -2.366  -0.105  1.00  0.00     0.164 C   
BRANCH  23  24
ATOM     24  C13 UNL     1      -1.988  -2.959   1.112  1.00  0.00    -0.002 A   
ATOM     25  C14 UNL     1      -2.348  -2.513   2.407  1.00  0.00     0.012 A   
ATOM     26  C18 UNL     1      -0.993  -3.942   0.973  1.00  0.00     0.045 A   
ATOM     27  C15 UNL     1      -1.724  -3.033   3.547  1.00  0.00     0.037 A   
ATOM     28  C17 UNL     1      -0.399  -4.434   2.117  1.00  0.00     0.109 A   
ATOM     29  C16 UNL     1      -0.753  -3.992   3.367  1.00  0.00     0.108 A   
ATOM     30  O3  UNL     1       0.577  -5.379   2.157  1.00  0.00    -0.316 OA  
ATOM     31  O4  UNL     1      -0.046  -4.603   4.353  1.00  0.00    -0.316 OA  
ATOM     32  C19 UNL     1       0.778  -5.505   3.583  1.00  0.00     0.337 C   
ENDBRANCH  23  24
ENDBRANCH  20  23
ENDBRANCH  19  20
BRANCH  19  33
ATOM     33  C20 UNL     1      -0.340  -1.354  -2.002  1.00  0.00     0.043 C   
ATOM     34  C21 UNL     1       1.119  -1.133  -2.409  1.00  0.00     0.010 C   
ATOM     35  C24 UNL     1      -1.092  -0.896  -3.254  1.00  0.00     0.010 C   
ATOM     36  C22 UNL     1       1.170  -1.591  -3.865  1.00  0.00     0.001 C   
ATOM     37  C23 UNL     1      -0.253  -1.443  -4.406  1.00  0.00     0.001 C   
ENDBRANCH  19  33
ENDBRANCH   3  19
TORSDOF 10
