REMARK SMILES OC[C@@H](c1ccc(O)cc1)n1cc([C@@H]([NH2+]Cc2ccc3c(c2)OCO3)C2CCCC2)nn1
REMARK SMILES IDX 11 1 12 2 13 3 31 4 32 5 3 7 2 8 1 9 4 11 5 12 10 13 6 14
REMARK SMILES IDX 9 15 7 16 8 17 14 19 15 20 16 23 17 24 18 25 22 26 19 27
REMARK SMILES IDX 21 28 20 29 23 30 25 31 24 32 26 33 27 34 30 35 28 36 29 37
REMARK H PARENT 12 6 1 10 8 18 15 21 15 22
ROOT
ATOM     1   N1  UNL     1       1.562  -2.742   1.234  1.00  0.00    -0.202 N   
ATOM     2   C9  UNL     1       0.638  -2.610   0.232  1.00  0.00     0.046 A   
ATOM     3   C10 UNL     1       0.182  -1.319   0.355  1.00  0.00     0.127 A   
ATOM     4   N3  UNL     1       0.794  -0.731   1.435  1.00  0.00    -0.132 NA  
ATOM     5   N4  UNL     1       1.623  -1.612   1.971  1.00  0.00    -0.075 NA  
ATOM     6   H10 UNL     1       0.416  -3.418  -0.451  1.00  0.00     0.083 HD  
ENDROOT
BRANCH   1   7
ATOM     7   C2  UNL     1       2.431  -3.876   1.548  1.00  0.00     0.155 C   
BRANCH   7   8
ATOM     8   C1  UNL     1       1.677  -4.959   2.346  1.00  0.00     0.185 C   
BRANCH   8   9
ATOM     9   O1  UNL     1       0.495  -5.424   1.690  1.00  0.00    -0.394 OA  
ATOM     10  H1  UNL     1       0.147  -6.161   2.226  1.00  0.00     0.210 HD  
ENDBRANCH   8   9
ENDBRANCH   7   8
BRANCH   7  11
ATOM     11  C3  UNL     1       3.191  -4.326   0.304  1.00  0.00    -0.023 A   
ATOM     12  C4  UNL     1       4.315  -3.583  -0.111  1.00  0.00     0.008 A   
ATOM     13  C8  UNL     1       2.804  -5.431  -0.470  1.00  0.00     0.008 A   
ATOM     14  C5  UNL     1       5.033  -3.938  -1.256  1.00  0.00     0.033 A   
ATOM     15  C7  UNL     1       3.522  -5.784  -1.617  1.00  0.00     0.033 A   
ATOM     16  C6  UNL     1       4.628  -5.038  -2.000  1.00  0.00     0.071 A   
BRANCH  16  17
ATOM     17  O2  UNL     1       5.295  -5.423  -3.124  1.00  0.00    -0.361 OA  
ATOM     18  H7  UNL     1       6.074  -4.853  -3.245  1.00  0.00     0.218 HD  
ENDBRANCH  16  17
ENDBRANCH   7  11
ENDBRANCH   1   7
BRANCH   3  19
ATOM     19  C11 UNL     1      -0.842  -0.552  -0.418  1.00  0.00     0.117 C   
BRANCH  19  20
ATOM     20  N2  UNL     1      -1.483   0.477   0.483  1.00  0.00     0.249 N   
ATOM     21  H12 UNL     1      -0.717   0.919   1.013  1.00  0.00     0.199 HD  
ATOM     22  H13 UNL     1      -1.933   1.225  -0.053  1.00  0.00     0.199 HD  
BRANCH  20  23
ATOM     23  C12 UNL     1      -2.447  -0.066   1.480  1.00  0.00     0.164 C   
BRANCH  23  24
ATOM     24  C13 UNL     1      -2.885   1.016   2.425  1.00  0.00    -0.002 A   
ATOM     25  C14 UNL     1      -2.157   1.252   3.615  1.00  0.00     0.012 A   
ATOM     26  C18 UNL     1      -3.978   1.840   2.106  1.00  0.00     0.045 A   
ATOM     27  C15 UNL     1      -2.517   2.285   4.486  1.00  0.00     0.037 A   
ATOM     28  C17 UNL     1      -4.307   2.850   2.985  1.00  0.00     0.109 A   
ATOM     29  C16 UNL     1      -3.601   3.064   4.143  1.00  0.00     0.108 A   
ATOM     30  O3  UNL     1      -5.325   3.736   2.826  1.00  0.00    -0.316 OA  
ATOM     31  O4  UNL     1      -4.088   4.109   4.861  1.00  0.00    -0.316 OA  
ATOM     32  C19 UNL     1      -5.200   4.518   4.036  1.00  0.00     0.337 C   
ENDBRANCH  23  24
ENDBRANCH  20  23
ENDBRANCH  19  20
BRANCH  19  33
ATOM     33  C20 UNL     1      -0.290   0.189  -1.653  1.00  0.00     0.043 C   
ATOM     34  C21 UNL     1       0.253  -0.720  -2.769  1.00  0.00     0.010 C   
ATOM     35  C24 UNL     1       0.844   1.187  -1.393  1.00  0.00     0.010 C   
ATOM     36  C22 UNL     1       1.403   0.049  -3.423  1.00  0.00     0.001 C   
ATOM     37  C23 UNL     1       1.395   1.433  -2.789  1.00  0.00     0.001 C   
ENDBRANCH  19  33
ENDBRANCH   3  19
TORSDOF 10
