REMARK SMILES c1cnnc(Cn2cc([C@@H]([NH2+]Cc3ccc4c(c3)OCO4)C3CCCC3)nn2)c1
REMARK SMILES IDX 10 1 9 2 7 3 8 4 28 5 27 6 6 8 5 9 1 10 2 11 29 12 3 13 4 14
REMARK SMILES IDX 11 15 12 18 13 19 14 20 18 21 15 22 17 23 16 24 19 25 21 26
REMARK SMILES IDX 20 27 22 28 23 29 26 30 24 31 25 32
REMARK H PARENT 8 7 11 16 11 17
ROOT
ATOM     1   C7  UNL     1       0.951  -1.958   0.598  1.00  0.00     0.117 C   
ENDROOT
BRANCH   1   2
ATOM     2   C6  UNL     1       1.353  -0.688   1.266  1.00  0.00     0.127 A   
ATOM     3   N3  UNL     1       1.556   1.357   1.924  1.00  0.00    -0.206 N   
ATOM     4   C5  UNL     1       0.610   0.418   1.610  1.00  0.00     0.046 A   
ATOM     5   N6  UNL     1       2.793   0.823   1.896  1.00  0.00    -0.076 NA  
ATOM     6   N5  UNL     1       2.682  -0.427   1.479  1.00  0.00    -0.132 NA  
ATOM     7   H5  UNL     1      -0.443   0.655   1.550  1.00  0.00     0.083 HD  
BRANCH   3   8
ATOM     8   C4  UNL     1       1.368   2.786   2.098  1.00  0.00     0.192 C   
BRANCH   8   9
ATOM     9   C3  UNL     1       1.417   3.492   0.767  1.00  0.00     0.082 A   
ATOM     10  C1  UNL     1       1.934   5.388  -0.591  1.00  0.00     0.024 A   
ATOM     11  C2  UNL     1       1.387   4.702  -1.657  1.00  0.00     0.136 A   
ATOM     12  C21 UNL     1       1.948   4.770   0.653  1.00  0.00     0.029 A   
ATOM     13  N1  UNL     1       0.869   3.464  -1.529  1.00  0.00    -0.159 NA  
ATOM     14  N2  UNL     1       0.871   2.864  -0.306  1.00  0.00    -0.154 NA  
ENDBRANCH   8   9
ENDBRANCH   3   8
ENDBRANCH   1   2
BRANCH   1  15
ATOM     15  N4  UNL     1       1.772  -2.129  -0.665  1.00  0.00     0.249 N   
ATOM     16  H7  UNL     1       1.649  -3.068  -1.050  1.00  0.00     0.199 HD  
ATOM     17  H8  UNL     1       2.757  -2.039  -0.380  1.00  0.00     0.199 HD  
BRANCH  15  18
ATOM     18  C8  UNL     1       1.530  -1.126  -1.750  1.00  0.00     0.164 C   
BRANCH  18  19
ATOM     19  C9  UNL     1       0.150  -1.225  -2.338  1.00  0.00    -0.002 A   
ATOM     20  C10 UNL     1      -0.224  -2.351  -3.112  1.00  0.00     0.012 A   
ATOM     21  C14 UNL     1      -0.790  -0.207  -2.100  1.00  0.00     0.045 A   
ATOM     22  C11 UNL     1      -1.518  -2.468  -3.631  1.00  0.00     0.037 A   
ATOM     23  C13 UNL     1      -2.058  -0.355  -2.623  1.00  0.00     0.109 A   
ATOM     24  C12 UNL     1      -2.412  -1.454  -3.367  1.00  0.00     0.108 A   
ATOM     25  O1  UNL     1      -3.083   0.524  -2.476  1.00  0.00    -0.316 OA  
ATOM     26  O2  UNL     1      -3.702  -1.402  -3.787  1.00  0.00    -0.316 OA  
ATOM     27  C15 UNL     1      -4.116  -0.127  -3.250  1.00  0.00     0.337 C   
ENDBRANCH  18  19
ENDBRANCH  15  18
ENDBRANCH   1  15
BRANCH   1  28
ATOM     28  C16 UNL     1       1.175  -3.188   1.497  1.00  0.00     0.043 C   
ATOM     29  C17 UNL     1       0.749  -4.518   0.862  1.00  0.00     0.010 C   
ATOM     30  C20 UNL     1       0.335  -3.162   2.778  1.00  0.00     0.010 C   
ATOM     31  C18 UNL     1       0.455  -5.460   2.029  1.00  0.00     0.001 C   
ATOM     32  C19 UNL     1       0.425  -4.593   3.284  1.00  0.00     0.001 C   
ENDBRANCH   1  28
TORSDOF 7
