REMARK SMILES COc1ncccc1Cn1cc([C@@H]([NH2+]Cc2ccc3c(c2)OCO3)C2CCCCC2)nn1
REMARK SMILES IDX 10 1 11 2 12 3 31 4 32 5 9 7 8 8 3 9 4 10 5 11 7 12 6 13
REMARK SMILES IDX 2 14 1 15 13 16 14 17 15 20 16 21 17 22 21 23 18 24 20 25
REMARK SMILES IDX 19 26 22 27 24 28 23 29 25 30 26 31 30 32 27 33 29 34 28 35
REMARK H PARENT 11 6 14 18 14 19
ROOT
ATOM     1   N2  UNL     1       0.904  -1.073  -2.312  1.00  0.00    -0.208 N   
ATOM     2   C8  UNL     1       0.235  -0.126  -1.585  1.00  0.00     0.046 A   
ATOM     3   C9  UNL     1       0.421  -0.517  -0.279  1.00  0.00     0.127 A   
ATOM     4   N4  UNL     1       1.133  -1.689  -0.256  1.00  0.00    -0.132 NA  
ATOM     5   N5  UNL     1       1.411  -2.026  -1.505  1.00  0.00    -0.076 NA  
ATOM     6   H9  UNL     1      -0.260   0.717  -2.048  1.00  0.00     0.083 HD  
ENDROOT
BRANCH   1   7
ATOM     7   C7  UNL     1       1.081  -1.149  -3.752  1.00  0.00     0.174 C   
BRANCH   7   8
ATOM     8   C6  UNL     1       2.165  -0.218  -4.210  1.00  0.00     0.021 A   
ATOM     9   C2  UNL     1       1.895   1.101  -4.572  1.00  0.00     0.171 A   
ATOM     10  N1  UNL     1       2.842   1.985  -4.948  1.00  0.00    -0.233 NA  
ATOM     11  C3  UNL     1       4.117   1.542  -4.989  1.00  0.00     0.114 A   
ATOM     12  C5  UNL     1       3.502  -0.637  -4.252  1.00  0.00     0.011 A   
ATOM     13  C4  UNL     1       4.492   0.253  -4.654  1.00  0.00     0.021 A   
BRANCH   9  14
ATOM     14  O1  UNL     1       0.579   1.516  -4.506  1.00  0.00    -0.332 OA  
ATOM     15  C1  UNL     1       0.376   2.818  -5.054  1.00  0.00     0.205 C   
ENDBRANCH   9  14
ENDBRANCH   7   8
ENDBRANCH   1   7
BRANCH   3  16
ATOM     16  C10 UNL     1      -0.023   0.101   1.008  1.00  0.00     0.117 C   
BRANCH  16  17
ATOM     17  N3  UNL     1      -0.097  -0.951   2.089  1.00  0.00     0.249 N   
ATOM     18  H11 UNL     1      -0.018  -0.535   3.020  1.00  0.00     0.199 HD  
ATOM     19  H12 UNL     1       0.734  -1.548   1.955  1.00  0.00     0.199 HD  
BRANCH  17  20
ATOM     20  C11 UNL     1      -1.291  -1.843   2.049  1.00  0.00     0.164 C   
BRANCH  20  21
ATOM     21  C12 UNL     1      -2.549  -1.143   2.486  1.00  0.00    -0.002 A   
ATOM     22  C13 UNL     1      -2.743  -0.800   3.847  1.00  0.00     0.012 A   
ATOM     23  C17 UNL     1      -3.529  -0.797   1.540  1.00  0.00     0.045 A   
ATOM     24  C14 UNL     1      -3.891  -0.117   4.259  1.00  0.00     0.037 A   
ATOM     25  C16 UNL     1      -4.649  -0.123   1.981  1.00  0.00     0.109 A   
ATOM     26  C15 UNL     1      -4.825   0.209   3.301  1.00  0.00     0.108 A   
ATOM     27  O2  UNL     1      -5.682   0.288   1.200  1.00  0.00    -0.316 OA  
ATOM     28  O3  UNL     1      -5.991   0.869   3.519  1.00  0.00    -0.316 OA  
ATOM     29  C18 UNL     1      -6.550   0.889   2.189  1.00  0.00     0.337 C   
ENDBRANCH  20  21
ENDBRANCH  17  20
ENDBRANCH  16  17
BRANCH  16  30
ATOM     30  C19 UNL     1       0.909   1.263   1.447  1.00  0.00     0.043 C   
ATOM     31  C20 UNL     1       0.268   2.112   2.562  1.00  0.00     0.010 C   
ATOM     32  C24 UNL     1       2.323   0.811   1.864  1.00  0.00     0.010 C   
ATOM     33  C21 UNL     1       1.152   3.295   2.950  1.00  0.00     0.001 C   
ATOM     34  C23 UNL     1       3.200   1.999   2.255  1.00  0.00     0.001 C   
ATOM     35  C22 UNL     1       2.553   2.842   3.348  1.00  0.00     0.000 C   
ENDBRANCH  16  30
ENDBRANCH   3  16
TORSDOF 8
