REMARK SMILES CC(C)[C@H]([NH2+]Cc1ccc2c(c1)OCO2)c1cn(Cc2cc(N)cc(CN)c2)nn1
REMARK SMILES IDX 16 1 17 2 18 3 29 4 30 5 4 7 2 8 1 9 3 10 5 11 6 14 7 15
REMARK SMILES IDX 8 16 12 17 9 18 11 19 10 20 13 21 15 22 14 23 19 24 20 25
REMARK SMILES IDX 21 26 28 27 22 28 25 29 24 30 23 31 26 34 27 35
REMARK H PARENT 17 6 5 12 5 13 23 32 23 33 27 36 27 37
ROOT
ATOM     1   C13 UNL     1      -1.331   1.777   1.542  1.00  0.00     0.127 A   
ATOM     2   C14 UNL     1      -0.489   1.502   2.597  1.00  0.00     0.046 A   
ATOM     3   N2  UNL     1      -1.268   0.753   3.444  1.00  0.00    -0.208 N   
ATOM     4   N5  UNL     1      -2.546   0.720   3.013  1.00  0.00    -0.076 NA  
ATOM     5   N6  UNL     1      -2.590   1.321   1.835  1.00  0.00    -0.132 NA  
ATOM     6   H18 UNL     1       0.576   1.617   2.744  1.00  0.00     0.083 HD  
ENDROOT
BRANCH   1   7
ATOM     7   C4  UNL     1      -1.017   2.256   0.163  1.00  0.00     0.117 C   
BRANCH   7   8
ATOM     8   C2  UNL     1      -1.557   3.680  -0.130  1.00  0.00     0.037 C   
ATOM     9   C1  UNL     1      -0.913   4.267  -1.394  1.00  0.00     0.014 C   
ATOM     10  C3  UNL     1      -3.083   3.775  -0.246  1.00  0.00     0.014 C   
ENDBRANCH   7   8
BRANCH   7  11
ATOM     11  N1  UNL     1      -1.552   1.263  -0.843  1.00  0.00     0.249 N   
ATOM     12  H9  UNL     1      -2.526   1.073  -0.569  1.00  0.00     0.199 HD  
ATOM     13  H10 UNL     1      -1.570   1.665  -1.783  1.00  0.00     0.199 HD  
BRANCH  11  14
ATOM     14  C5  UNL     1      -0.852  -0.063  -0.892  1.00  0.00     0.164 C   
BRANCH  14  15
ATOM     15  C6  UNL     1       0.532   0.039  -1.472  1.00  0.00    -0.002 A   
ATOM     16  C7  UNL     1       0.715   0.303  -2.851  1.00  0.00     0.012 A   
ATOM     17  C11 UNL     1       1.656  -0.099  -0.639  1.00  0.00     0.045 A   
ATOM     18  C8  UNL     1       1.998   0.441  -3.392  1.00  0.00     0.037 A   
ATOM     19  C10 UNL     1       2.906   0.046  -1.204  1.00  0.00     0.109 A   
ATOM     20  C9  UNL     1       3.072   0.310  -2.541  1.00  0.00     0.108 A   
ATOM     21  O1  UNL     1       4.089  -0.040  -0.541  1.00  0.00    -0.316 OA  
ATOM     22  O2  UNL     1       4.380   0.416  -2.890  1.00  0.00    -0.316 OA  
ATOM     23  C12 UNL     1       5.025   0.161  -1.623  1.00  0.00     0.337 C   
ENDBRANCH  14  15
ENDBRANCH  11  14
ENDBRANCH   7  11
ENDBRANCH   1   7
BRANCH   3  24
ATOM     24  C15 UNL     1      -0.797  -0.220   4.421  1.00  0.00     0.169 C   
BRANCH  24  25
ATOM     25  C16 UNL     1      -0.112  -1.349   3.680  1.00  0.00    -0.026 A   
ATOM     26  C17 UNL     1       1.286  -1.459   3.676  1.00  0.00     0.028 A   
ATOM     27  C22 UNL     1      -0.866  -2.207   2.862  1.00  0.00     0.010 A   
ATOM     28  C18 UNL     1       1.928  -2.404   2.873  1.00  0.00     0.024 A   
ATOM     29  C20 UNL     1      -0.239  -3.093   1.977  1.00  0.00    -0.032 A   
ATOM     30  C19 UNL     1       1.162  -3.171   1.989  1.00  0.00     0.028 A   
BRANCH  28  31
ATOM     31  N3  UNL     1       3.323  -2.398   2.768  1.00  0.00    -0.358 N   
ATOM     32  H22 UNL     1       3.804  -2.094   3.611  1.00  0.00     0.143 HD  
ATOM     33  H23 UNL     1       3.714  -3.268   2.414  1.00  0.00     0.143 HD  
ENDBRANCH  28  31
BRANCH  29  34
ATOM     34  C21 UNL     1      -1.042  -3.942   1.024  1.00  0.00     0.113 C   
BRANCH  34  35
ATOM     35  N4  UNL     1      -1.921  -3.130   0.170  1.00  0.00    -0.327 NA  
ATOM     36  H27 UNL     1      -2.709  -2.835   0.748  1.00  0.00     0.119 HD  
ATOM     37  H28 UNL     1      -2.337  -3.768  -0.514  1.00  0.00     0.119 HD  
ENDBRANCH  34  35
ENDBRANCH  29  34
ENDBRANCH  24  25
ENDBRANCH   3  24
TORSDOF 10
