REMARK SMILES OC[C@H](c1cc(F)ccc1F)n1cc([C@@H]([NH2+]Cc2ccc3c(c2)OCO3)C2CCCC2)nn1
REMARK SMILES IDX 12 1 13 2 14 3 32 4 33 5 3 7 2 8 1 9 4 11 5 12 10 13 6 14
REMARK SMILES IDX 9 15 8 16 11 17 7 18 15 19 16 20 17 23 18 24 19 25 23 26
REMARK SMILES IDX 20 27 22 28 21 29 24 30 26 31 25 32 27 33 28 34 31 35 29 36
REMARK SMILES IDX 30 37
REMARK H PARENT 13 6 1 10 16 21 16 22
ROOT
ATOM     1   N1  UNL     1       0.696  -0.116   2.789  1.00  0.00    -0.202 N   
ATOM     2   C9  UNL     1       1.058   0.798   1.834  1.00  0.00     0.046 A   
ATOM     3   C10 UNL     1       0.036   0.749   0.913  1.00  0.00     0.127 A   
ATOM     4   N3  UNL     1      -0.882  -0.191   1.313  1.00  0.00    -0.132 NA  
ATOM     5   N4  UNL     1      -0.467  -0.715   2.454  1.00  0.00    -0.075 NA  
ATOM     6   H8  UNL     1       1.961   1.386   1.915  1.00  0.00     0.083 HD  
ENDROOT
BRANCH   1   7
ATOM     7   C2  UNL     1       1.366  -0.461   4.044  1.00  0.00     0.158 C   
BRANCH   7   8
ATOM     8   C1  UNL     1       0.955   0.523   5.158  1.00  0.00     0.186 C   
BRANCH   8   9
ATOM     9   O1  UNL     1       1.274   1.879   4.840  1.00  0.00    -0.394 OA  
ATOM     10  H1  UNL     1       0.972   2.426   5.591  1.00  0.00     0.210 HD  
ENDBRANCH   8   9
ENDBRANCH   7   8
BRANCH   7  11
ATOM     11  C3  UNL     1       2.856  -0.685   3.829  1.00  0.00     0.016 A   
ATOM     12  C4  UNL     1       3.849   0.216   4.240  1.00  0.00     0.048 A   
ATOM     13  C8  UNL     1       3.272  -1.856   3.174  1.00  0.00     0.128 A   
ATOM     14  C5  UNL     1       5.195  -0.062   4.002  1.00  0.00     0.123 A   
ATOM     15  C7  UNL     1       4.618  -2.134   2.939  1.00  0.00     0.042 A   
ATOM     16  C6  UNL     1       5.588  -1.227   3.356  1.00  0.00     0.042 A   
ATOM     17  F2  UNL     1       2.355  -2.738   2.755  1.00  0.00    -0.207 F   
ATOM     18  F1  UNL     1       6.124   0.817   4.396  1.00  0.00    -0.207 F   
ENDBRANCH   7  11
ENDBRANCH   1   7
BRANCH   3  19
ATOM     19  C11 UNL     1      -0.175   1.477  -0.376  1.00  0.00     0.117 C   
BRANCH  19  20
ATOM     20  N2  UNL     1      -1.016   0.632  -1.304  1.00  0.00     0.249 N   
ATOM     21  H10 UNL     1      -1.452   1.195  -2.039  1.00  0.00     0.199 HD  
ATOM     22  H11 UNL     1      -1.786   0.250  -0.733  1.00  0.00     0.199 HD  
BRANCH  20  23
ATOM     23  C12 UNL     1      -0.312  -0.526  -1.922  1.00  0.00     0.164 C   
BRANCH  23  24
ATOM     24  C13 UNL     1      -1.269  -1.340  -2.747  1.00  0.00    -0.002 A   
ATOM     25  C14 UNL     1      -1.393  -1.112  -4.138  1.00  0.00     0.012 A   
ATOM     26  C18 UNL     1      -2.090  -2.298  -2.126  1.00  0.00     0.045 A   
ATOM     27  C15 UNL     1      -2.313  -1.836  -4.904  1.00  0.00     0.037 A   
ATOM     28  C17 UNL     1      -2.990  -2.989  -2.909  1.00  0.00     0.109 A   
ATOM     29  C16 UNL     1      -3.099  -2.766  -4.258  1.00  0.00     0.108 A   
ATOM     30  O2  UNL     1      -3.858  -3.937  -2.467  1.00  0.00    -0.316 OA  
ATOM     31  O3  UNL     1      -4.045  -3.549  -4.838  1.00  0.00    -0.316 OA  
ATOM     32  C19 UNL     1      -4.523  -4.295  -3.701  1.00  0.00     0.337 C   
ENDBRANCH  23  24
ENDBRANCH  20  23
ENDBRANCH  19  20
BRANCH  19  33
ATOM     33  C20 UNL     1      -0.867   2.849  -0.231  1.00  0.00     0.043 C   
ATOM     34  C21 UNL     1      -2.267   2.824   0.406  1.00  0.00     0.010 C   
ATOM     35  C24 UNL     1      -0.066   3.893   0.574  1.00  0.00     0.010 C   
ATOM     36  C22 UNL     1      -2.399   4.190   1.062  1.00  0.00     0.001 C   
ATOM     37  C23 UNL     1      -1.016   4.417   1.646  1.00  0.00     0.001 C   
ENDBRANCH  19  33
ENDBRANCH   3  19
TORSDOF 9
