REMARK SMILES OC[C@@H](c1cc(F)ccc1F)n1cc([C@@H]([NH2+]Cc2ccc3c(c2)OCO3)C2CCCC2)nn1
REMARK SMILES IDX 12 1 13 2 14 3 32 4 33 5 3 7 2 8 1 9 4 11 5 12 10 13 6 14
REMARK SMILES IDX 9 15 8 16 11 17 7 18 15 19 16 20 17 23 18 24 19 25 23 26
REMARK SMILES IDX 20 27 22 28 21 29 24 30 26 31 25 32 27 33 28 34 31 35 29 36
REMARK SMILES IDX 30 37
REMARK H PARENT 13 6 1 10 16 21 16 22
ROOT
ATOM     1   N1  UNL     1       0.531   2.223  -0.230  1.00  0.00    -0.202 N   
ATOM     2   C9  UNL     1       0.473   0.872  -0.450  1.00  0.00     0.046 A   
ATOM     3   C10 UNL     1      -0.638   0.465   0.252  1.00  0.00     0.127 A   
ATOM     4   N3  UNL     1      -1.191   1.546   0.889  1.00  0.00    -0.132 NA  
ATOM     5   N4  UNL     1      -0.461   2.611   0.601  1.00  0.00    -0.075 NA  
ATOM     6   H8  UNL     1       1.209   0.352  -1.049  1.00  0.00     0.083 HD  
ENDROOT
BRANCH   1   7
ATOM     7   C2  UNL     1       1.506   3.203  -0.717  1.00  0.00     0.158 C   
BRANCH   7   8
ATOM     8   C1  UNL     1       2.719   3.262   0.233  1.00  0.00     0.186 C   
BRANCH   8   9
ATOM     9   O1  UNL     1       3.404   2.014   0.328  1.00  0.00    -0.394 OA  
ATOM     10  H1  UNL     1       4.014   2.082   1.088  1.00  0.00     0.210 HD  
ENDBRANCH   8   9
ENDBRANCH   7   8
BRANCH   7  11
ATOM     11  C3  UNL     1       1.785   3.014  -2.200  1.00  0.00     0.016 A   
ATOM     12  C4  UNL     1       2.982   2.490  -2.711  1.00  0.00     0.048 A   
ATOM     13  C8  UNL     1       0.787   3.370  -3.122  1.00  0.00     0.128 A   
ATOM     14  C5  UNL     1       3.155   2.341  -4.087  1.00  0.00     0.123 A   
ATOM     15  C7  UNL     1       0.962   3.223  -4.497  1.00  0.00     0.042 A   
ATOM     16  C6  UNL     1       2.157   2.703  -4.984  1.00  0.00     0.042 A   
ATOM     17  F2  UNL     1      -0.376   3.864  -2.676  1.00  0.00    -0.207 F   
ATOM     18  F1  UNL     1       4.304   1.833  -4.551  1.00  0.00    -0.207 F   
ENDBRANCH   7  11
ENDBRANCH   1   7
BRANCH   3  19
ATOM     19  C11 UNL     1      -1.236  -0.886   0.466  1.00  0.00     0.117 C   
BRANCH  19  20
ATOM     20  N2  UNL     1      -1.713  -0.978   1.905  1.00  0.00     0.249 N   
ATOM     21  H10 UNL     1      -2.643  -1.403   1.959  1.00  0.00     0.199 HD  
ATOM     22  H11 UNL     1      -1.845  -0.001   2.214  1.00  0.00     0.199 HD  
BRANCH  20  23
ATOM     23  C12 UNL     1      -0.801  -1.659   2.865  1.00  0.00     0.164 C   
BRANCH  23  24
ATOM     24  C13 UNL     1       0.568  -1.044   2.959  1.00  0.00    -0.002 A   
ATOM     25  C14 UNL     1       0.745   0.239   3.530  1.00  0.00     0.012 A   
ATOM     26  C18 UNL     1       1.682  -1.728   2.443  1.00  0.00     0.045 A   
ATOM     27  C15 UNL     1       2.007   0.843   3.567  1.00  0.00     0.037 A   
ATOM     28  C17 UNL     1       2.911  -1.105   2.496  1.00  0.00     0.109 A   
ATOM     29  C16 UNL     1       3.070   0.146   3.036  1.00  0.00     0.108 A   
ATOM     30  O2  UNL     1       4.076  -1.621   2.025  1.00  0.00    -0.316 OA  
ATOM     31  O3  UNL     1       4.354   0.587   2.955  1.00  0.00    -0.316 OA  
ATOM     32  C19 UNL     1       4.999  -0.561   2.358  1.00  0.00     0.337 C   
ENDBRANCH  23  24
ENDBRANCH  20  23
ENDBRANCH  19  20
BRANCH  19  33
ATOM     33  C20 UNL     1      -2.433  -1.146  -0.469  1.00  0.00     0.043 C   
ATOM     34  C21 UNL     1      -3.055  -2.542  -0.313  1.00  0.00     0.010 C   
ATOM     35  C24 UNL     1      -2.064  -1.117  -1.956  1.00  0.00     0.010 C   
ATOM     36  C22 UNL     1      -3.691  -2.875  -1.663  1.00  0.00     0.001 C   
ATOM     37  C23 UNL     1      -3.264  -1.771  -2.623  1.00  0.00     0.001 C   
ENDBRANCH  19  33
ENDBRANCH   3  19
TORSDOF 9
