REMARK SMILES c1cc(Cn2cc([C@@H]([NH2+]Cc3ccc4c(c3)OCO4)C3CCCCC3)nn2)c2[nH]ncc2c1
REMARK SMILES IDX 5 1 6 2 7 3 26 4 27 5 4 7 3 8 1 9 2 10 33 11 32 12 28 13
REMARK SMILES IDX 31 14 29 15 30 16 8 18 9 19 10 22 11 23 12 24 16 25 13 26
REMARK SMILES IDX 15 27 14 28 17 29 19 30 18 31 20 32 21 33 25 34 22 35 24 36
REMARK SMILES IDX 23 37
REMARK H PARENT 6 6 29 17 9 20 9 21
ROOT
ATOM     1   N1  UNL     1      -3.053   1.725  -0.716  1.00  0.00    -0.208 N   
ATOM     2   C5  UNL     1      -1.706   1.735  -0.958  1.00  0.00     0.046 A   
ATOM     3   C6  UNL     1      -1.439   0.462  -1.415  1.00  0.00     0.127 A   
ATOM     4   N3  UNL     1      -2.610  -0.250  -1.474  1.00  0.00    -0.132 NA  
ATOM     5   N4  UNL     1      -3.589   0.531  -1.048  1.00  0.00    -0.076 NA  
ATOM     6   H5  UNL     1      -1.081   2.586  -0.722  1.00  0.00     0.083 HD  
ENDROOT
BRANCH   1   7
ATOM     7   C4  UNL     1      -3.827   2.681   0.066  1.00  0.00     0.171 C   
BRANCH   7   8
ATOM     8   C3  UNL     1      -3.459   2.587   1.531  1.00  0.00    -0.005 A   
ATOM     9   C1  UNL     1      -2.864   3.710   3.631  1.00  0.00     0.001 A   
ATOM     10  C2  UNL     1      -3.240   3.757   2.286  1.00  0.00     0.007 A   
ATOM     11  C25 UNL     1      -2.679   2.488   4.284  1.00  0.00     0.012 A   
ATOM     12  C24 UNL     1      -2.899   1.302   3.567  1.00  0.00     0.017 A   
ATOM     13  C22 UNL     1      -3.312   1.375   2.241  1.00  0.00     0.061 A   
ATOM     14  C23 UNL     1      -2.788  -0.082   3.833  1.00  0.00     0.141 A   
ATOM     15  N5  UNL     1      -3.511   0.066   1.868  1.00  0.00    -0.238 N   
ATOM     16  N6  UNL     1      -3.068  -0.834   2.764  1.00  0.00    -0.192 NA  
ATOM     17  H27 UNL     1      -3.873  -0.271   0.978  1.00  0.00     0.176 HD  
ENDBRANCH   7   8
ENDBRANCH   1   7
BRANCH   3  18
ATOM     18  C7  UNL     1      -0.139  -0.219  -1.717  1.00  0.00     0.117 C   
BRANCH  18  19
ATOM     19  N2  UNL     1      -0.090  -1.546  -0.980  1.00  0.00     0.249 N   
ATOM     20  H7  UNL     1      -0.911  -2.087  -1.284  1.00  0.00     0.199 HD  
ATOM     21  H8  UNL     1       0.740  -2.078  -1.246  1.00  0.00     0.199 HD  
BRANCH  19  22
ATOM     22  C8  UNL     1      -0.126  -1.486   0.518  1.00  0.00     0.164 C   
BRANCH  22  23
ATOM     23  C9  UNL     1       1.035  -0.732   1.104  1.00  0.00    -0.002 A   
ATOM     24  C10 UNL     1       0.817   0.492   1.781  1.00  0.00     0.012 A   
ATOM     25  C14 UNL     1       2.346  -1.220   0.966  1.00  0.00     0.045 A   
ATOM     26  C11 UNL     1       1.886   1.229   2.301  1.00  0.00     0.037 A   
ATOM     27  C13 UNL     1       3.378  -0.467   1.487  1.00  0.00     0.109 A   
ATOM     28  C12 UNL     1       3.155   0.724   2.134  1.00  0.00     0.108 A   
ATOM     29  O1  UNL     1       4.697  -0.787   1.428  1.00  0.00    -0.316 OA  
ATOM     30  O2  UNL     1       4.306   1.301   2.567  1.00  0.00    -0.316 OA  
ATOM     31  C15 UNL     1       5.282   0.326   2.141  1.00  0.00     0.337 C   
ENDBRANCH  22  23
ENDBRANCH  19  22
ENDBRANCH  18  19
BRANCH  18  32
ATOM     32  C16 UNL     1       0.048  -0.474  -3.246  1.00  0.00     0.043 C   
ATOM     33  C17 UNL     1       0.020   0.839  -4.065  1.00  0.00     0.010 C   
ATOM     34  C21 UNL     1       1.347  -1.224  -3.612  1.00  0.00     0.010 C   
ATOM     35  C18 UNL     1       1.256   1.708  -3.830  1.00  0.00     0.001 C   
ATOM     36  C20 UNL     1       2.600  -0.389  -3.358  1.00  0.00     0.001 C   
ATOM     37  C19 UNL     1       2.546   0.941  -4.104  1.00  0.00     0.000 C   
ENDBRANCH  18  32
ENDBRANCH   3  18
TORSDOF 7
