REMARK SMILES CC(C)(C)[C@H]([NH2+]Cc1ccc2c(c1)OCO2)c1cn(C[C@H]2NCCc3sccc32)nn1
REMARK SMILES IDX 17 1 18 2 19 3 30 4 31 5 5 7 2 8 1 9 3 10 4 11 6 12 7 15
REMARK SMILES IDX 8 16 9 17 13 18 10 19 12 20 11 21 14 22 16 23 15 24 20 25
REMARK SMILES IDX 21 26 22 27 29 28 23 29 25 30 28 31 24 32 26 33 27 34
REMARK H PARENT 18 6 6 13 6 14 22 35
ROOT
ATOM     1   C14 UNL     1      -0.508   2.317  -0.219  1.00  0.00     0.127 A   
ATOM     2   C15 UNL     1      -1.568   1.647   0.350  1.00  0.00     0.045 A   
ATOM     3   N2  UNL     1      -2.459   1.512  -0.676  1.00  0.00    -0.210 N   
ATOM     4   N4  UNL     1      -2.001   2.102  -1.796  1.00  0.00    -0.076 NA  
ATOM     5   N5  UNL     1      -0.801   2.592  -1.530  1.00  0.00    -0.132 NA  
ATOM     6   H20 UNL     1      -1.740   1.217   1.327  1.00  0.00     0.083 HD  
ENDROOT
BRANCH   1   7
ATOM     7   C5  UNL     1       0.853   2.624   0.321  1.00  0.00     0.120 C   
BRANCH   7   8
ATOM     8   C2  UNL     1       1.044   4.112   0.782  1.00  0.00     0.010 C   
ATOM     9   C1  UNL     1       2.427   4.292   1.451  1.00  0.00     0.017 C   
ATOM     10  C3  UNL     1      -0.020   4.473   1.844  1.00  0.00     0.017 C   
ATOM     11  C4  UNL     1       0.936   5.124  -0.375  1.00  0.00     0.017 C   
ENDBRANCH   7   8
BRANCH   7  12
ATOM     12  N1  UNL     1       1.894   2.251  -0.719  1.00  0.00     0.250 N   
ATOM     13  H11 UNL     1       1.649   2.768  -1.573  1.00  0.00     0.199 HD  
ATOM     14  H12 UNL     1       2.824   2.555  -0.427  1.00  0.00     0.199 HD  
BRANCH  12  15
ATOM     15  C6  UNL     1       1.964   0.805  -1.103  1.00  0.00     0.164 C   
BRANCH  15  16
ATOM     16  C7  UNL     1       2.317  -0.101   0.042  1.00  0.00    -0.002 A   
ATOM     17  C8  UNL     1       3.630  -0.114   0.572  1.00  0.00     0.012 A   
ATOM     18  C12 UNL     1       1.331  -0.924   0.616  1.00  0.00     0.045 A   
ATOM     19  C9  UNL     1       3.956  -0.929   1.661  1.00  0.00     0.037 A   
ATOM     20  C11 UNL     1       1.685  -1.714   1.690  1.00  0.00     0.109 A   
ATOM     21  C10 UNL     1       2.961  -1.716   2.199  1.00  0.00     0.108 A   
ATOM     22  O1  UNL     1       0.856  -2.553   2.364  1.00  0.00    -0.316 OA  
ATOM     23  O2  UNL     1       3.097  -2.562   3.252  1.00  0.00    -0.316 OA  
ATOM     24  C13 UNL     1       1.768  -3.119   3.333  1.00  0.00     0.337 C   
ENDBRANCH  15  16
ENDBRANCH  12  15
ENDBRANCH   7  12
ENDBRANCH   1   7
BRANCH   3  25
ATOM     25  C16 UNL     1      -3.710   0.785  -0.682  1.00  0.00     0.157 C   
BRANCH  25  26
ATOM     26  C17 UNL     1      -3.566  -0.605  -1.330  1.00  0.00     0.104 C   
ATOM     27  N3  UNL     1      -2.556  -1.480  -0.658  1.00  0.00    -0.308 NA  
ATOM     28  C23 UNL     1      -4.891  -1.327  -1.393  1.00  0.00    -0.019 A   
ATOM     29  C18 UNL     1      -3.057  -2.045   0.617  1.00  0.00     0.087 C   
ATOM     30  C20 UNL     1      -5.206  -2.387  -0.564  1.00  0.00    -0.005 A   
ATOM     31  C22 UNL     1      -5.977  -1.036  -2.280  1.00  0.00     0.013 A   
ATOM     32  C19 UNL     1      -4.267  -2.982   0.434  1.00  0.00     0.058 C   
ATOM     33  S1  UNL     1      -6.769  -2.999  -0.823  1.00  0.00    -0.102 S   
ATOM     34  C21 UNL     1      -7.058  -1.867  -2.072  1.00  0.00     0.046 A   
ATOM     35  H24 UNL     1      -2.392  -2.269  -1.291  1.00  0.00     0.123 HD  
ENDBRANCH  25  26
ENDBRANCH   3  25
TORSDOF 7
