REMARK SMILES CC(C)(C)[C@H]([NH2+]Cc1ccc2c(c1)OCO2)c1cn(C[C@@H]2NCCc3sccc32)nn1
REMARK SMILES IDX 17 1 18 2 19 3 30 4 31 5 5 7 2 8 1 9 3 10 4 11 6 12 7 15
REMARK SMILES IDX 8 16 9 17 13 18 10 19 12 20 11 21 14 22 16 23 15 24 20 25
REMARK SMILES IDX 21 26 22 27 29 28 23 29 25 30 28 31 24 32 26 33 27 34
REMARK H PARENT 18 6 6 13 6 14 22 35
ROOT
ATOM     1   C14 UNL     1       1.498  -0.263  -0.836  1.00  0.00     0.127 A   
ATOM     2   C15 UNL     1       1.480   1.114  -0.842  1.00  0.00     0.045 A   
ATOM     3   N2  UNL     1       1.580   1.440  -2.165  1.00  0.00    -0.210 N   
ATOM     4   N4  UNL     1       1.731   0.332  -2.919  1.00  0.00    -0.076 NA  
ATOM     5   N5  UNL     1       1.673  -0.717  -2.117  1.00  0.00    -0.132 NA  
ATOM     6   H20 UNL     1       1.341   1.858  -0.072  1.00  0.00     0.083 HD  
ENDROOT
BRANCH   1   7
ATOM     7   C5  UNL     1       1.236  -1.244   0.264  1.00  0.00     0.120 C   
BRANCH   7   8
ATOM     8   C2  UNL     1       2.526  -1.787   0.968  1.00  0.00     0.010 C   
ATOM     9   C1  UNL     1       3.409  -2.634   0.030  1.00  0.00     0.017 C   
ATOM     10  C3  UNL     1       3.377  -0.613   1.503  1.00  0.00     0.017 C   
ATOM     11  C4  UNL     1       2.135  -2.654   2.188  1.00  0.00     0.017 C   
ENDBRANCH   7   8
BRANCH   7  12
ATOM     12  N1  UNL     1       0.427  -2.388  -0.312  1.00  0.00     0.250 N   
ATOM     13  H11 UNL     1       0.903  -2.652  -1.188  1.00  0.00     0.199 HD  
ATOM     14  H12 UNL     1       0.437  -3.207   0.299  1.00  0.00     0.199 HD  
BRANCH  12  15
ATOM     15  C6  UNL     1      -0.989  -2.069  -0.670  1.00  0.00     0.164 C   
BRANCH  15  16
ATOM     16  C7  UNL     1      -1.886  -1.992   0.534  1.00  0.00    -0.002 A   
ATOM     17  C8  UNL     1      -2.331  -0.740   1.017  1.00  0.00     0.012 A   
ATOM     18  C12 UNL     1      -2.280  -3.168   1.196  1.00  0.00     0.045 A   
ATOM     19  C9  UNL     1      -3.164  -0.655   2.139  1.00  0.00     0.037 A   
ATOM     20  C11 UNL     1      -3.099  -3.047   2.299  1.00  0.00     0.109 A   
ATOM     21  C10 UNL     1      -3.529  -1.826   2.758  1.00  0.00     0.108 A   
ATOM     22  O1  UNL     1      -3.575  -4.080   3.041  1.00  0.00    -0.316 OA  
ATOM     23  O2  UNL     1      -4.330  -1.935   3.847  1.00  0.00    -0.316 OA  
ATOM     24  C13 UNL     1      -4.394  -3.369   3.997  1.00  0.00     0.337 C   
ENDBRANCH  15  16
ENDBRANCH  12  15
ENDBRANCH   7  12
ENDBRANCH   1   7
BRANCH   3  25
ATOM     25  C16 UNL     1       1.478   2.740  -2.796  1.00  0.00     0.157 C   
BRANCH  25  26
ATOM     26  C17 UNL     1       0.190   3.527  -2.473  1.00  0.00     0.104 C   
ATOM     27  N3  UNL     1       0.280   4.134  -1.113  1.00  0.00    -0.308 NA  
ATOM     28  C23 UNL     1      -1.076   2.696  -2.595  1.00  0.00    -0.019 A   
ATOM     29  C18 UNL     1      -0.997   4.742  -0.684  1.00  0.00     0.087 C   
ATOM     30  C20 UNL     1      -2.112   2.783  -1.683  1.00  0.00    -0.005 A   
ATOM     31  C22 UNL     1      -1.412   1.783  -3.644  1.00  0.00     0.013 A   
ATOM     32  C19 UNL     1      -2.100   3.687  -0.493  1.00  0.00     0.058 C   
ATOM     33  S1  UNL     1      -3.411   1.752  -2.035  1.00  0.00    -0.102 S   
ATOM     34  C21 UNL     1      -2.648   1.200  -3.461  1.00  0.00     0.046 A   
ATOM     35  H24 UNL     1       0.983   4.875  -1.138  1.00  0.00     0.123 HD  
ENDBRANCH  25  26
ENDBRANCH   3  25
TORSDOF 7
