REMARK SMILES Cn1cc(Cn2cc([C@@H]([NH2+]Cc3ccc4c(c3)OCO4)C(C)(C)C)nn2)c(C(F)F)n1
REMARK SMILES IDX 6 1 7 2 8 3 25 4 26 5 5 7 4 8 2 9 3 10 31 11 27 12 1 13
REMARK SMILES IDX 28 14 29 15 30 16 9 17 10 18 11 21 12 22 13 23 17 24 14 25
REMARK SMILES IDX 16 26 15 27 18 28 20 29 19 30 21 31 22 32 23 33 24 34
REMARK H PARENT 7 6 10 19 10 20
ROOT
ATOM     1   N2  UNL     1      -1.013  -2.736  -1.149  1.00  0.00    -0.208 N   
ATOM     2   C5  UNL     1       0.007  -1.847  -1.350  1.00  0.00     0.046 A   
ATOM     3   C6  UNL     1       0.740  -1.913  -0.186  1.00  0.00     0.127 A   
ATOM     4   N4  UNL     1       0.176  -2.843   0.649  1.00  0.00    -0.132 NA  
ATOM     5   N5  UNL     1      -0.884  -3.351   0.044  1.00  0.00    -0.076 NA  
ATOM     6   H7  UNL     1       0.083  -1.242  -2.244  1.00  0.00     0.083 HD  
ENDROOT
BRANCH   1   7
ATOM     7   C4  UNL     1      -2.141  -3.022  -2.022  1.00  0.00     0.173 C   
BRANCH   7   8
ATOM     8   C3  UNL     1      -3.401  -2.421  -1.493  1.00  0.00     0.016 A   
ATOM     9   N1  UNL     1      -5.415  -2.139  -0.651  1.00  0.00    -0.235 N   
ATOM     10  C2  UNL     1      -4.513  -3.091  -1.020  1.00  0.00     0.102 A   
ATOM     11  N6  UNL     1      -4.972  -0.885  -0.845  1.00  0.00    -0.180 NA  
ATOM     12  C20 UNL     1      -3.745  -1.038  -1.370  1.00  0.00     0.131 A   
ATOM     13  C1  UNL     1      -6.734  -2.355  -0.106  1.00  0.00     0.159 C   
BRANCH  12  14
ATOM     14  C21 UNL     1      -2.920   0.157  -1.734  1.00  0.00     0.393 C   
ATOM     15  F1  UNL     1      -2.169  -0.089  -2.847  1.00  0.00    -0.203 F   
ATOM     16  F2  UNL     1      -2.011   0.443  -0.752  1.00  0.00    -0.203 F   
ENDBRANCH  12  14
ENDBRANCH   7   8
ENDBRANCH   1   7
BRANCH   3  17
ATOM     17  C7  UNL     1       1.899  -1.097   0.299  1.00  0.00     0.120 C   
BRANCH  17  18
ATOM     18  N3  UNL     1       1.673  -0.793   1.768  1.00  0.00     0.250 N   
ATOM     19  H9  UNL     1       1.331  -1.671   2.185  1.00  0.00     0.199 HD  
ATOM     20  H10 UNL     1       2.545  -0.558   2.245  1.00  0.00     0.199 HD  
BRANCH  18  21
ATOM     21  C8  UNL     1       0.656   0.260   2.065  1.00  0.00     0.164 C   
BRANCH  21  22
ATOM     22  C9  UNL     1       1.148   1.643   1.735  1.00  0.00    -0.002 A   
ATOM     23  C10 UNL     1       0.595   2.354   0.643  1.00  0.00     0.012 A   
ATOM     24  C14 UNL     1       2.176   2.231   2.492  1.00  0.00     0.045 A   
ATOM     25  C11 UNL     1       1.062   3.628   0.302  1.00  0.00     0.037 A   
ATOM     26  C13 UNL     1       2.614   3.488   2.129  1.00  0.00     0.109 A   
ATOM     27  C12 UNL     1       2.075   4.167   1.064  1.00  0.00     0.108 A   
ATOM     28  O1  UNL     1       3.598   4.191   2.748  1.00  0.00    -0.316 OA  
ATOM     29  O2  UNL     1       2.650   5.383   0.880  1.00  0.00    -0.316 OA  
ATOM     30  C15 UNL     1       3.597   5.409   1.969  1.00  0.00     0.337 C   
ENDBRANCH  21  22
ENDBRANCH  18  21
ENDBRANCH  17  18
BRANCH  17  31
ATOM     31  C16 UNL     1       3.299  -1.769   0.087  1.00  0.00     0.010 C   
ATOM     32  C17 UNL     1       3.480  -3.055   0.917  1.00  0.00     0.017 C   
ATOM     33  C18 UNL     1       4.428  -0.781   0.469  1.00  0.00     0.017 C   
ATOM     34  C19 UNL     1       3.499  -2.120  -1.405  1.00  0.00     0.017 C   
ENDBRANCH  17  31
ENDBRANCH   3  17
TORSDOF 8
