REMARK SMILES Cc1cccc(-n2cc([C@@H]([NH2+]Cc3ccc4c(c3)OCO4)C3CCCC3)nn2)n1
REMARK SMILES IDX 10 1 9 2 7 3 8 4 28 5 27 6 6 7 2 8 3 9 29 10 4 11 5 12 1 13
REMARK SMILES IDX 11 14 12 17 13 18 14 19 18 20 15 21 17 22 16 23 19 24 21 25
REMARK SMILES IDX 20 26 22 27 23 28 26 29 24 30 25 31
REMARK H PARENT 11 15 11 16
ROOT
ATOM     1   C9  UNL     1       0.748  -0.848   0.234  1.00  0.00     0.117 C   
ENDROOT
BRANCH   1   2
ATOM     2   C8  UNL     1       0.166   0.517   0.049  1.00  0.00     0.128 A   
ATOM     3   N1  UNL     1      -0.620   2.552   0.200  1.00  0.00    -0.162 N   
ATOM     4   C7  UNL     1      -0.031   1.545   0.940  1.00  0.00     0.137 A   
ATOM     5   N4  UNL     1      -0.801   2.117  -1.075  1.00  0.00    -0.070 NA  
ATOM     6   N3  UNL     1      -0.317   0.888  -1.177  1.00  0.00    -0.131 NA  
BRANCH   3   7
ATOM     7   C6  UNL     1      -1.006   3.837   0.661  1.00  0.00     0.146 A   
ATOM     8   C2  UNL     1      -1.145   5.347   2.422  1.00  0.00     0.040 A   
ATOM     9   C3  UNL     1      -1.728   6.303   1.596  1.00  0.00     0.023 A   
ATOM     10  N5  UNL     1      -0.782   4.121   1.974  1.00  0.00    -0.236 NA  
ATOM     11  C4  UNL     1      -1.951   5.992   0.258  1.00  0.00     0.006 A   
ATOM     12  C5  UNL     1      -1.587   4.739  -0.225  1.00  0.00     0.047 A   
ATOM     13  C1  UNL     1      -0.891   5.660   3.867  1.00  0.00     0.067 C   
ENDBRANCH   3   7
ENDBRANCH   1   2
BRANCH   1  14
ATOM     14  N2  UNL     1       0.017  -1.835  -0.642  1.00  0.00     0.249 N   
ATOM     15  H9  UNL     1       0.533  -2.714  -0.741  1.00  0.00     0.199 HD  
ATOM     16  H10 UNL     1      -0.032  -1.422  -1.585  1.00  0.00     0.199 HD  
BRANCH  14  17
ATOM     17  C10 UNL     1      -1.377  -2.154  -0.219  1.00  0.00     0.164 C   
BRANCH  17  18
ATOM     18  C11 UNL     1      -2.005  -3.125  -1.178  1.00  0.00    -0.002 A   
ATOM     19  C12 UNL     1      -1.942  -4.518  -0.933  1.00  0.00     0.012 A   
ATOM     20  C16 UNL     1      -2.612  -2.654  -2.356  1.00  0.00     0.045 A   
ATOM     21  C13 UNL     1      -2.487  -5.431  -1.843  1.00  0.00     0.037 A   
ATOM     22  C15 UNL     1      -3.139  -3.582  -3.230  1.00  0.00     0.109 A   
ATOM     23  C14 UNL     1      -3.079  -4.931  -2.981  1.00  0.00     0.108 A   
ATOM     24  O1  UNL     1      -3.757  -3.297  -4.406  1.00  0.00    -0.316 OA  
ATOM     25  O2  UNL     1      -3.654  -5.666  -3.968  1.00  0.00    -0.316 OA  
ATOM     26  C17 UNL     1      -4.104  -4.625  -4.862  1.00  0.00     0.337 C   
ENDBRANCH  17  18
ENDBRANCH  14  17
ENDBRANCH   1  14
BRANCH   1  27
ATOM     27  C18 UNL     1       2.247  -0.888  -0.128  1.00  0.00     0.043 C   
ATOM     28  C19 UNL     1       3.112   0.004   0.769  1.00  0.00     0.010 C   
ATOM     29  C22 UNL     1       2.911  -2.255   0.071  1.00  0.00     0.010 C   
ATOM     30  C20 UNL     1       4.534  -0.496   0.548  1.00  0.00     0.001 C   
ATOM     31  C21 UNL     1       4.406  -1.955   0.116  1.00  0.00     0.001 C   
ENDBRANCH   1  27
TORSDOF 6
