REMARK SMILES CC(F)(F)c1ccc(Cn2cc([C@@H]([NH2+]Cc3ccc4c(c3)OCO4)C(C)(C)C)nn2)nc1
REMARK SMILES IDX 10 1 11 2 12 3 29 4 30 5 9 7 8 8 5 9 6 10 32 11 7 12 31 13
REMARK SMILES IDX 2 14 1 15 3 16 4 17 13 18 14 19 15 22 16 23 17 24 21 25
REMARK SMILES IDX 18 26 20 27 19 28 22 29 24 30 23 31 25 32 26 33 27 34 28 35
REMARK H PARENT 11 6 14 20 14 21
ROOT
ATOM     1   N1  UNL     1      -0.939   0.462   1.817  1.00  0.00    -0.206 N   
ATOM     2   C8  UNL     1       0.356   0.603   1.398  1.00  0.00     0.046 A   
ATOM     3   C9  UNL     1       0.349   1.776   0.678  1.00  0.00     0.127 A   
ATOM     4   N3  UNL     1      -0.923   2.296   0.680  1.00  0.00    -0.132 NA  
ATOM     5   N4  UNL     1      -1.700   1.485   1.378  1.00  0.00    -0.076 NA  
ATOM     6   H8  UNL     1       1.118  -0.130   1.630  1.00  0.00     0.083 HD  
ENDROOT
BRANCH   1   7
ATOM     7   C7  UNL     1      -1.507  -0.583   2.647  1.00  0.00     0.190 C   
BRANCH   7   8
ATOM     8   C6  UNL     1      -1.492  -1.901   1.924  1.00  0.00     0.060 A   
ATOM     9   C3  UNL     1      -1.365  -4.325   0.610  1.00  0.00     0.039 A   
ATOM     10  C4  UNL     1      -2.443  -3.467   0.378  1.00  0.00     0.013 A   
ATOM     11  C23 UNL     1      -0.392  -3.899   1.502  1.00  0.00     0.121 A   
ATOM     12  C5  UNL     1      -2.510  -2.242   1.038  1.00  0.00     0.026 A   
ATOM     13  N5  UNL     1      -0.429  -2.713   2.154  1.00  0.00    -0.259 NA  
BRANCH   9  14
ATOM     14  C2  UNL     1      -1.246  -5.660  -0.072  1.00  0.00     0.271 C   
ATOM     15  C1  UNL     1      -1.978  -6.752   0.690  1.00  0.00     0.093 C   
ATOM     16  F1  UNL     1       0.056  -6.045  -0.213  1.00  0.00    -0.202 F   
ATOM     17  F2  UNL     1      -1.743  -5.629  -1.344  1.00  0.00    -0.202 F   
ENDBRANCH   9  14
ENDBRANCH   7   8
ENDBRANCH   1   7
BRANCH   3  18
ATOM     18  C10 UNL     1       1.419   2.466  -0.114  1.00  0.00     0.120 C   
BRANCH  18  19
ATOM     19  N2  UNL     1       0.753   3.154  -1.296  1.00  0.00     0.250 N   
ATOM     20  H10 UNL     1      -0.248   3.218  -1.050  1.00  0.00     0.199 HD  
ATOM     21  H11 UNL     1       1.062   4.123  -1.390  1.00  0.00     0.199 HD  
BRANCH  19  22
ATOM     22  C11 UNL     1       0.868   2.471  -2.614  1.00  0.00     0.164 C   
BRANCH  22  23
ATOM     23  C12 UNL     1       0.274   1.091  -2.653  1.00  0.00    -0.002 A   
ATOM     24  C13 UNL     1      -1.121   0.900  -2.497  1.00  0.00     0.012 A   
ATOM     25  C17 UNL     1       1.104  -0.026  -2.844  1.00  0.00     0.045 A   
ATOM     26  C14 UNL     1      -1.679  -0.383  -2.518  1.00  0.00     0.037 A   
ATOM     27  C16 UNL     1       0.521  -1.276  -2.865  1.00  0.00     0.109 A   
ATOM     28  C15 UNL     1      -0.830  -1.451  -2.705  1.00  0.00     0.108 A   
ATOM     29  O1  UNL     1       1.179  -2.450  -3.049  1.00  0.00    -0.316 OA  
ATOM     30  O2  UNL     1      -1.195  -2.758  -2.765  1.00  0.00    -0.316 OA  
ATOM     31  C18 UNL     1       0.081  -3.390  -3.008  1.00  0.00     0.337 C   
ENDBRANCH  22  23
ENDBRANCH  19  22
ENDBRANCH  18  19
BRANCH  18  32
ATOM     32  C19 UNL     1       2.275   3.490   0.708  1.00  0.00     0.010 C   
ATOM     33  C20 UNL     1       1.435   4.653   1.273  1.00  0.00     0.017 C   
ATOM     34  C21 UNL     1       2.967   2.776   1.891  1.00  0.00     0.017 C   
ATOM     35  C22 UNL     1       3.397   4.078  -0.180  1.00  0.00     0.017 C   
ENDBRANCH  18  32
ENDBRANCH   3  18
TORSDOF 8
