REMARK SMILES CC(=O)c1cccc(-n2cc([C@@H]([NH2+]Cc3ccc4c(c3)OCO4)C(C)(C)C)nn2)c1
REMARK SMILES IDX 9 1 10 2 11 3 28 4 29 5 8 6 4 7 5 8 30 9 6 10 7 11 2 12 1 13
REMARK SMILES IDX 3 14 12 15 13 16 14 19 15 20 16 21 20 22 17 23 19 24 18 25
REMARK SMILES IDX 21 26 23 27 22 28 24 29 25 30 26 31 27 32
REMARK H PARENT 13 17 13 18
ROOT
ATOM     1   N1  UNL     1       1.554  -1.149  -1.261  1.00  0.00    -0.181 N   
ATOM     2   C8  UNL     1       1.000   0.108  -1.122  1.00  0.00     0.135 A   
ATOM     3   C9  UNL     1       1.960   0.852  -0.474  1.00  0.00     0.128 A   
ATOM     4   N3  UNL     1       3.064   0.075  -0.269  1.00  0.00    -0.131 NA  
ATOM     5   N4  UNL     1       2.824  -1.121  -0.779  1.00  0.00    -0.071 NA  
ENDROOT
BRANCH   1   6
ATOM     6   C7  UNL     1       0.962  -2.338  -1.752  1.00  0.00     0.058 A   
ATOM     7   C3  UNL     1      -0.983  -3.568  -2.545  1.00  0.00     0.019 A   
ATOM     8   C4  UNL     1      -0.203  -4.722  -2.666  1.00  0.00     0.012 A   
ATOM     9   C23 UNL     1      -0.396  -2.374  -2.093  1.00  0.00     0.037 A   
ATOM     10  C5  UNL     1       1.153  -4.685  -2.332  1.00  0.00     0.003 A   
ATOM     11  C6  UNL     1       1.734  -3.502  -1.871  1.00  0.00     0.026 A   
BRANCH   7  12
ATOM     12  C2  UNL     1      -2.443  -3.558  -2.852  1.00  0.00     0.159 C   
ATOM     13  C1  UNL     1      -3.057  -4.747  -3.543  1.00  0.00     0.093 C   
ATOM     14  O1  UNL     1      -3.118  -2.584  -2.522  1.00  0.00    -0.295 OA  
ENDBRANCH   7  12
ENDBRANCH   1   6
BRANCH   3  15
ATOM     15  C10 UNL     1       1.906   2.229   0.119  1.00  0.00     0.120 C   
BRANCH  15  16
ATOM     16  N2  UNL     1       2.409   2.143   1.551  1.00  0.00     0.250 N   
ATOM     17  H9  UNL     1       2.970   2.960   1.800  1.00  0.00     0.199 HD  
ATOM     18  H10 UNL     1       3.064   1.345   1.573  1.00  0.00     0.199 HD  
BRANCH  16  19
ATOM     19  C11 UNL     1       1.376   1.932   2.611  1.00  0.00     0.164 C   
BRANCH  19  20
ATOM     20  C12 UNL     1       0.541   0.697   2.421  1.00  0.00    -0.002 A   
ATOM     21  C13 UNL     1       1.097  -0.589   2.630  1.00  0.00     0.012 A   
ATOM     22  C17 UNL     1      -0.786   0.807   1.969  1.00  0.00     0.045 A   
ATOM     23  C14 UNL     1       0.355  -1.746   2.365  1.00  0.00     0.037 A   
ATOM     24  C16 UNL     1      -1.486  -0.353   1.711  1.00  0.00     0.109 A   
ATOM     25  C15 UNL     1      -0.932  -1.594   1.898  1.00  0.00     0.108 A   
ATOM     26  O2  UNL     1      -2.755  -0.416   1.231  1.00  0.00    -0.316 OA  
ATOM     27  O3  UNL     1      -1.783  -2.597   1.560  1.00  0.00    -0.316 OA  
ATOM     28  C18 UNL     1      -2.953  -1.847   1.163  1.00  0.00     0.337 C   
ENDBRANCH  19  20
ENDBRANCH  16  19
ENDBRANCH  15  16
BRANCH  15  29
ATOM     29  C19 UNL     1       2.700   3.314  -0.687  1.00  0.00     0.010 C   
ATOM     30  C20 UNL     1       2.197   3.356  -2.148  1.00  0.00     0.017 C   
ATOM     31  C21 UNL     1       4.221   3.063  -0.706  1.00  0.00     0.017 C   
ATOM     32  C22 UNL     1       2.445   4.714  -0.082  1.00  0.00     0.017 C   
ENDBRANCH  15  29
ENDBRANCH   3  15
TORSDOF 7
