REMARK SMILES FC(F)(F)c1n[nH]cc1Cn1cc([C@@H]([NH2+]Cc2ccc3c(c2)OCO3)C2CCCC2)nn1
REMARK SMILES IDX 11 1 12 2 13 3 31 4 32 5 10 7 9 8 5 9 6 10 7 11 8 12 2 14
REMARK SMILES IDX 1 15 3 16 4 17 14 18 15 19 16 22 17 23 18 24 22 25 19 26
REMARK SMILES IDX 21 27 20 28 23 29 25 30 24 31 26 32 27 33 30 34 28 35 29 36
REMARK H PARENT 12 6 7 13 15 20 15 21
ROOT
ATOM     1   N3  UNL     1      -1.022  -3.169  -1.140  1.00  0.00    -0.208 N   
ATOM     2   C6  UNL     1      -1.721  -2.001  -0.988  1.00  0.00     0.046 A   
ATOM     3   C7  UNL     1      -0.744  -1.032  -0.935  1.00  0.00     0.127 A   
ATOM     4   N5  UNL     1       0.481  -1.621  -1.107  1.00  0.00    -0.132 NA  
ATOM     5   N6  UNL     1       0.299  -2.925  -1.225  1.00  0.00    -0.076 NA  
ATOM     6   H5  UNL     1      -2.797  -1.978  -0.884  1.00  0.00     0.083 HD  
ENDROOT
BRANCH   1   7
ATOM     7   C5  UNL     1      -1.517  -4.539  -1.131  1.00  0.00     0.173 C   
BRANCH   7   8
ATOM     8   C4  UNL     1      -2.424  -4.786   0.032  1.00  0.00     0.019 A   
ATOM     9   C2  UNL     1      -2.127  -4.672   1.432  1.00  0.00     0.168 A   
ATOM     10  N1  UNL     1      -3.224  -4.929   2.170  1.00  0.00    -0.179 NA  
ATOM     11  N2  UNL     1      -4.166  -5.279   1.282  1.00  0.00    -0.245 N   
ATOM     12  C3  UNL     1      -3.746  -5.185  -0.010  1.00  0.00     0.099 A   
ATOM     13  H1  UNL     1      -5.077  -5.565   1.632  1.00  0.00     0.175 HD  
BRANCH   9  14
ATOM     14  C1  UNL     1      -0.811  -4.269   2.060  1.00  0.00     0.435 C   
ATOM     15  F1  UNL     1      -0.641  -2.914   2.017  1.00  0.00    -0.164 F   
ATOM     16  F2  UNL     1      -0.681  -4.636   3.359  1.00  0.00    -0.164 F   
ATOM     17  F3  UNL     1       0.245  -4.803   1.391  1.00  0.00    -0.164 F   
ENDBRANCH   9  14
ENDBRANCH   7   8
ENDBRANCH   1   7
BRANCH   3  18
ATOM     18  C8  UNL     1      -0.816   0.435  -0.660  1.00  0.00     0.117 C   
BRANCH  18  19
ATOM     19  N4  UNL     1       0.431   0.877   0.054  1.00  0.00     0.249 N   
ATOM     20  H7  UNL     1       1.219   0.391  -0.402  1.00  0.00     0.199 HD  
ATOM     21  H8  UNL     1       0.616   1.878  -0.053  1.00  0.00     0.199 HD  
BRANCH  19  22
ATOM     22  C9  UNL     1       0.495   0.521   1.501  1.00  0.00     0.164 C   
BRANCH  22  23
ATOM     23  C10 UNL     1       1.850   0.858   2.054  1.00  0.00    -0.002 A   
ATOM     24  C11 UNL     1       2.891  -0.100   2.005  1.00  0.00     0.012 A   
ATOM     25  C15 UNL     1       2.114   2.143   2.555  1.00  0.00     0.045 A   
ATOM     26  C12 UNL     1       4.178   0.214   2.455  1.00  0.00     0.037 A   
ATOM     27  C14 UNL     1       3.395   2.422   2.986  1.00  0.00     0.109 A   
ATOM     28  C13 UNL     1       4.398   1.486   2.937  1.00  0.00     0.108 A   
ATOM     29  O1  UNL     1       3.820   3.614   3.482  1.00  0.00    -0.316 OA  
ATOM     30  O2  UNL     1       5.580   1.969   3.399  1.00  0.00    -0.316 OA  
ATOM     31  C16 UNL     1       5.210   3.320   3.750  1.00  0.00     0.337 C   
ENDBRANCH  22  23
ENDBRANCH  19  22
ENDBRANCH  18  19
BRANCH  18  32
ATOM     32  C17 UNL     1      -1.029   1.252  -1.949  1.00  0.00     0.043 C   
ATOM     33  C18 UNL     1      -1.360   2.729  -1.716  1.00  0.00     0.010 C   
ATOM     34  C21 UNL     1       0.141   1.277  -2.948  1.00  0.00     0.010 C   
ATOM     35  C19 UNL     1      -1.145   3.342  -3.090  1.00  0.00     0.001 C   
ATOM     36  C20 UNL     1       0.126   2.668  -3.587  1.00  0.00     0.001 C   
ENDBRANCH  18  32
ENDBRANCH   3  18
TORSDOF 8
