REMARK SMILES CC(C)(C)[C@H]([NH2+]Cc1ccc2c(c1)OCO2)c1cn(-c2cc(CO)cc(CO)c2)nn1
REMARK SMILES IDX 17 1 18 2 19 3 30 4 31 5 5 6 2 7 1 8 3 9 4 10 6 11 7 14 8 15
REMARK SMILES IDX 9 16 13 17 10 18 12 19 11 20 14 21 16 22 15 23 20 24 21 25
REMARK SMILES IDX 29 26 22 27 26 28 25 29 23 30 24 31 27 33 28 34
REMARK H PARENT 6 12 6 13 24 32 28 35
ROOT
ATOM     1   C14 UNL     1      -0.877  -0.989  -0.837  1.00  0.00     0.128 A   
ATOM     2   C15 UNL     1       0.273  -0.350  -1.241  1.00  0.00     0.135 A   
ATOM     3   N2  UNL     1      -0.024   0.174  -2.486  1.00  0.00    -0.181 N   
ATOM     4   N3  UNL     1      -1.318  -0.121  -2.781  1.00  0.00    -0.071 NA  
ATOM     5   N4  UNL     1      -1.838  -0.828  -1.792  1.00  0.00    -0.131 NA  
ENDROOT
BRANCH   1   6
ATOM     6   C5  UNL     1      -1.212  -1.705   0.436  1.00  0.00     0.120 C   
BRANCH   6   7
ATOM     7   C2  UNL     1      -1.020  -3.263   0.364  1.00  0.00     0.010 C   
ATOM     8   C1  UNL     1       0.428  -3.601  -0.059  1.00  0.00     0.017 C   
ATOM     9   C3  UNL     1      -1.984  -3.941  -0.630  1.00  0.00     0.017 C   
ATOM     10  C4  UNL     1      -1.238  -3.895   1.758  1.00  0.00     0.017 C   
ENDBRANCH   6   7
BRANCH   6  11
ATOM     11  N1  UNL     1      -2.638  -1.370   0.832  1.00  0.00     0.250 N   
ATOM     12  H11 UNL     1      -3.216  -1.545  -0.002  1.00  0.00     0.199 HD  
ATOM     13  H12 UNL     1      -2.973  -1.993   1.569  1.00  0.00     0.199 HD  
BRANCH  11  14
ATOM     14  C6  UNL     1      -2.901   0.042   1.249  1.00  0.00     0.164 C   
BRANCH  14  15
ATOM     15  C7  UNL     1      -2.185   0.422   2.516  1.00  0.00    -0.002 A   
ATOM     16  C8  UNL     1      -2.610  -0.093   3.765  1.00  0.00     0.012 A   
ATOM     17  C12 UNL     1      -1.062   1.267   2.462  1.00  0.00     0.045 A   
ATOM     18  C9  UNL     1      -1.925   0.225   4.943  1.00  0.00     0.037 A   
ATOM     19  C11 UNL     1      -0.408   1.557   3.641  1.00  0.00     0.109 A   
ATOM     20  C10 UNL     1      -0.827   1.051   4.847  1.00  0.00     0.108 A   
ATOM     21  O1  UNL     1       0.697   2.336   3.762  1.00  0.00    -0.316 OA  
ATOM     22  O2  UNL     1      -0.044   1.457   5.880  1.00  0.00    -0.316 OA  
ATOM     23  C13 UNL     1       0.905   2.301   5.192  1.00  0.00     0.337 C   
ENDBRANCH  14  15
ENDBRANCH  11  14
ENDBRANCH   6  11
ENDBRANCH   1   6
BRANCH   3  24
ATOM     24  C16 UNL     1       0.801   0.926  -3.358  1.00  0.00     0.058 A   
ATOM     25  C17 UNL     1       2.126   1.227  -3.014  1.00  0.00     0.032 A   
ATOM     26  C23 UNL     1       0.283   1.379  -4.579  1.00  0.00     0.032 A   
ATOM     27  C18 UNL     1       2.935   1.983  -3.875  1.00  0.00    -0.020 A   
ATOM     28  C21 UNL     1       1.073   2.143  -5.453  1.00  0.00    -0.020 A   
ATOM     29  C20 UNL     1       2.398   2.428  -5.094  1.00  0.00     0.012 A   
BRANCH  27  30
ATOM     30  C19 UNL     1       4.367   2.325  -3.539  1.00  0.00     0.191 C   
BRANCH  30  31
ATOM     31  O3  UNL     1       4.717   1.898  -2.228  1.00  0.00    -0.392 OA  
ATOM     32  H24 UNL     1       5.634   2.191  -2.083  1.00  0.00     0.211 HD  
ENDBRANCH  30  31
ENDBRANCH  27  30
BRANCH  28  33
ATOM     33  C22 UNL     1       0.526   2.604  -6.779  1.00  0.00     0.191 C   
BRANCH  33  34
ATOM     34  O4  UNL     1      -0.803   3.078  -6.618  1.00  0.00    -0.392 OA  
ATOM     35  H28 UNL     1      -1.112   3.347  -7.500  1.00  0.00     0.211 HD  
ENDBRANCH  33  34
ENDBRANCH  28  33
ENDBRANCH   3  24
TORSDOF 10
