REMARK SMILES c1cnc2[nH]cc(Cn3cc([C@@H]([NH2+]Cc4ccc5c(c4)OCO5)C4CCCCC4)nn3)c2c1
REMARK SMILES IDX 9 1 10 2 11 3 30 4 31 5 8 7 7 8 1 9 2 10 33 11 3 12 32 13
REMARK SMILES IDX 4 14 5 15 6 16 12 18 13 19 14 22 15 23 16 24 20 25 17 26
REMARK SMILES IDX 19 27 18 28 21 29 23 30 22 31 24 32 25 33 29 34 26 35 28 36
REMARK SMILES IDX 27 37
REMARK H PARENT 10 6 5 17 13 20 13 21
ROOT
ATOM     1   N3  UNL     1       2.348   0.765   2.377  1.00  0.00    -0.208 N   
ATOM     2   C7  UNL     1       2.224   0.193   1.138  1.00  0.00     0.046 A   
ATOM     3   C8  UNL     1       1.675   1.191   0.366  1.00  0.00     0.127 A   
ATOM     4   N5  UNL     1       1.509   2.317   1.133  1.00  0.00    -0.132 NA  
ATOM     5   N6  UNL     1       1.931   2.048   2.356  1.00  0.00    -0.076 NA  
ATOM     6   H7  UNL     1       2.492  -0.837   0.948  1.00  0.00     0.083 HD  
ENDROOT
BRANCH   1   7
ATOM     7   C6  UNL     1       2.860   0.166   3.599  1.00  0.00     0.171 C   
BRANCH   7   8
ATOM     8   C5  UNL     1       1.896  -0.843   4.128  1.00  0.00    -0.004 A   
ATOM     9   C1  UNL     1       2.505  -4.528   3.392  1.00  0.00     0.021 A   
ATOM     10  C2  UNL     1       1.351  -4.920   4.059  1.00  0.00     0.113 A   
ATOM     11  C25 UNL     1       2.825  -3.171   3.327  1.00  0.00     0.014 A   
ATOM     12  N1  UNL     1       0.478  -4.090   4.670  1.00  0.00    -0.241 NA  
ATOM     13  C24 UNL     1       1.955  -2.263   3.957  1.00  0.00     0.021 A   
ATOM     14  C3  UNL     1       0.840  -2.797   4.594  1.00  0.00     0.129 A   
ATOM     15  N2  UNL     1       0.137  -1.768   5.154  1.00  0.00    -0.305 N   
ATOM     16  C4  UNL     1       0.764  -0.580   4.884  1.00  0.00     0.079 A   
ATOM     17  H3  UNL     1      -0.721  -1.894   5.671  1.00  0.00     0.154 HD  
ENDBRANCH   7   8
ENDBRANCH   1   7
BRANCH   3  18
ATOM     18  C9  UNL     1       1.212   1.207  -1.055  1.00  0.00     0.117 C   
BRANCH  18  19
ATOM     19  N4  UNL     1       0.029   2.140  -1.185  1.00  0.00     0.249 N   
ATOM     20  H9  UNL     1       0.076   2.763  -0.362  1.00  0.00     0.199 HD  
ATOM     21  H10 UNL     1       0.125   2.755  -1.996  1.00  0.00     0.199 HD  
BRANCH  19  22
ATOM     22  C10 UNL     1      -1.318   1.505  -1.213  1.00  0.00     0.164 C   
BRANCH  22  23
ATOM     23  C11 UNL     1      -1.636   0.662  -0.010  1.00  0.00    -0.002 A   
ATOM     24  C12 UNL     1      -1.827   1.258   1.260  1.00  0.00     0.012 A   
ATOM     25  C16 UNL     1      -1.727  -0.735  -0.134  1.00  0.00     0.045 A   
ATOM     26  C13 UNL     1      -2.097   0.477   2.389  1.00  0.00     0.037 A   
ATOM     27  C15 UNL     1      -1.995  -1.475   0.999  1.00  0.00     0.109 A   
ATOM     28  C14 UNL     1      -2.175  -0.887   2.225  1.00  0.00     0.108 A   
ATOM     29  O1  UNL     1      -2.112  -2.827   1.046  1.00  0.00    -0.316 OA  
ATOM     30  O2  UNL     1      -2.432  -1.796   3.202  1.00  0.00    -0.316 OA  
ATOM     31  C17 UNL     1      -2.394  -3.029   2.450  1.00  0.00     0.337 C   
ENDBRANCH  22  23
ENDBRANCH  19  22
ENDBRANCH  18  19
BRANCH  18  32
ATOM     32  C18 UNL     1       2.342   1.605  -2.042  1.00  0.00     0.043 C   
ATOM     33  C19 UNL     1       2.853   3.050  -1.873  1.00  0.00     0.010 C   
ATOM     34  C23 UNL     1       1.926   1.349  -3.504  1.00  0.00     0.010 C   
ATOM     35  C20 UNL     1       3.976   3.370  -2.858  1.00  0.00     0.001 C   
ATOM     36  C22 UNL     1       3.055   1.676  -4.480  1.00  0.00     0.001 C   
ATOM     37  C21 UNL     1       3.556   3.104  -4.300  1.00  0.00     0.000 C   
ENDBRANCH  18  32
ENDBRANCH   3  18
TORSDOF 7
