REMARK SMILES COc1cc(F)c(Cn2cc([C@H](CC(C)C)[NH2+]Cc3ccc4c(c3)OCO4)nn2)c(F)c1
REMARK SMILES IDX 9 1 10 2 11 3 28 4 29 5 8 7 7 8 3 9 4 10 32 11 5 12 30 13
REMARK SMILES IDX 6 14 31 15 2 16 1 17 12 18 13 19 14 20 15 21 16 22 17 23
REMARK SMILES IDX 18 26 19 27 20 28 24 29 21 30 23 31 22 32 25 33 27 34 26 35
REMARK H PARENT 10 6 17 24 17 25
ROOT
ATOM     1   N1  UNL     1      -1.568  -0.588  -1.756  1.00  0.00    -0.208 N   
ATOM     2   C7  UNL     1      -1.402  -0.394  -0.412  1.00  0.00     0.046 A   
ATOM     3   C8  UNL     1      -1.008   0.921  -0.312  1.00  0.00     0.127 A   
ATOM     4   N3  UNL     1      -0.966   1.475  -1.565  1.00  0.00    -0.132 NA  
ATOM     5   N4  UNL     1      -1.311   0.545  -2.439  1.00  0.00    -0.076 NA  
ATOM     6   H7  UNL     1      -1.553  -1.186   0.311  1.00  0.00     0.083 HD  
ENDROOT
BRANCH   1   7
ATOM     7   C6  UNL     1      -1.974  -1.802  -2.447  1.00  0.00     0.175 C   
BRANCH   7   8
ATOM     8   C5  UNL     1      -0.876  -2.341  -3.313  1.00  0.00     0.043 A   
ATOM     9   C2  UNL     1       1.183  -3.340  -4.966  1.00  0.00     0.080 A   
ATOM     10  C3  UNL     1      -0.016  -2.909  -5.524  1.00  0.00     0.073 A   
ATOM     11  C23 UNL     1       1.349  -3.276  -3.580  1.00  0.00     0.073 A   
ATOM     12  C4  UNL     1      -1.027  -2.417  -4.697  1.00  0.00     0.133 A   
ATOM     13  C22 UNL     1       0.328  -2.783  -2.772  1.00  0.00     0.133 A   
ATOM     14  F1  UNL     1      -2.175  -2.011  -5.258  1.00  0.00    -0.206 F   
ATOM     15  F2  UNL     1       0.523  -2.722  -1.446  1.00  0.00    -0.206 F   
BRANCH   9  16
ATOM     16  O1  UNL     1       2.260  -3.834  -5.650  1.00  0.00    -0.349 OA  
ATOM     17  C1  UNL     1       2.122  -3.973  -7.060  1.00  0.00     0.203 C   
ENDBRANCH   9  16
ENDBRANCH   7   8
ENDBRANCH   1   7
BRANCH   3  18
ATOM     18  C9  UNL     1      -0.602   1.747   0.862  1.00  0.00     0.114 C   
BRANCH  18  19
ATOM     19  C10 UNL     1      -1.743   2.652   1.370  1.00  0.00     0.064 C   
BRANCH  19  20
ATOM     20  C11 UNL     1      -2.966   1.904   1.946  1.00  0.00    -0.012 C   
ATOM     21  C12 UNL     1      -2.610   1.062   3.174  1.00  0.00     0.007 C   
ATOM     22  C13 UNL     1      -4.060   2.914   2.312  1.00  0.00     0.007 C   
ENDBRANCH  19  20
ENDBRANCH  18  19
BRANCH  18  23
ATOM     23  N2  UNL     1       0.541   2.667   0.470  1.00  0.00     0.249 N   
ATOM     24  H18 UNL     1       0.238   3.147  -0.390  1.00  0.00     0.199 HD  
ATOM     25  H19 UNL     1       0.679   3.385   1.186  1.00  0.00     0.199 HD  
BRANCH  23  26
ATOM     26  C14 UNL     1       1.846   2.006   0.173  1.00  0.00     0.164 C   
BRANCH  26  27
ATOM     27  C15 UNL     1       2.437   1.300   1.365  1.00  0.00    -0.002 A   
ATOM     28  C16 UNL     1       2.528  -0.114   1.384  1.00  0.00     0.012 A   
ATOM     29  C20 UNL     1       2.881   2.037   2.477  1.00  0.00     0.045 A   
ATOM     30  C17 UNL     1       3.045  -0.787   2.497  1.00  0.00     0.037 A   
ATOM     31  C19 UNL     1       3.383   1.341   3.558  1.00  0.00     0.109 A   
ATOM     32  C18 UNL     1       3.461  -0.031   3.569  1.00  0.00     0.108 A   
ATOM     33  O2  UNL     1       3.840   1.896   4.711  1.00  0.00    -0.316 OA  
ATOM     34  O3  UNL     1       3.974  -0.512   4.732  1.00  0.00    -0.316 OA  
ATOM     35  C21 UNL     1       4.265   0.716   5.434  1.00  0.00     0.337 C   
ENDBRANCH  26  27
ENDBRANCH  23  26
ENDBRANCH  18  23
ENDBRANCH   3  18
TORSDOF 9
