REMARK SMILES Cc1ccc(C)c(C(=O)Cn2cc([C@@H]([NH2+]Cc3ccc4c(c3)OCO4)C3CCCCC3)nn2)c1
REMARK SMILES IDX 11 1 12 2 13 3 32 4 33 5 10 7 8 8 9 9 7 10 2 11 3 12 34 13
REMARK SMILES IDX 4 14 5 15 1 16 6 17 14 18 15 19 16 22 17 23 18 24 22 25
REMARK SMILES IDX 19 26 21 27 20 28 23 29 25 30 24 31 26 32 27 33 31 34 28 35
REMARK SMILES IDX 30 36 29 37
REMARK H PARENT 12 6 15 20 15 21
ROOT
ATOM     1   N1  UNL     1      -0.630   2.581   0.537  1.00  0.00    -0.204 N   
ATOM     2   C10 UNL     1      -0.889   1.813  -0.565  1.00  0.00     0.046 A   
ATOM     3   C11 UNL     1      -1.790   0.878  -0.103  1.00  0.00     0.127 A   
ATOM     4   N3  UNL     1      -2.089   1.145   1.207  1.00  0.00    -0.132 NA  
ATOM     5   N4  UNL     1      -1.386   2.200   1.582  1.00  0.00    -0.076 NA  
ATOM     6   H11 UNL     1      -0.369   1.949  -1.502  1.00  0.00     0.083 HD  
ENDROOT
BRANCH   1   7
ATOM     7   C9  UNL     1       0.368   3.623   0.694  1.00  0.00     0.214 C   
BRANCH   7   8
ATOM     8   C8  UNL     1       1.757   3.028   0.826  1.00  0.00     0.182 C   
ATOM     9   O1  UNL     1       1.956   1.814   0.782  1.00  0.00    -0.292 OA  
BRANCH   8  10
ATOM     10  C7  UNL     1       2.910   3.977   0.968  1.00  0.00     0.022 A   
ATOM     11  C2  UNL     1       3.781   6.091   1.833  1.00  0.00    -0.050 A   
ATOM     12  C3  UNL     1       5.029   5.786   1.288  1.00  0.00     0.004 A   
ATOM     13  C27 UNL     1       2.725   5.186   1.663  1.00  0.00     0.015 A   
ATOM     14  C4  UNL     1       5.225   4.591   0.597  1.00  0.00     0.004 A   
ATOM     15  C5  UNL     1       4.176   3.673   0.422  1.00  0.00    -0.040 A   
ATOM     16  C1  UNL     1       3.575   7.391   2.555  1.00  0.00     0.044 C   
ATOM     17  C6  UNL     1       4.466   2.399  -0.326  1.00  0.00     0.045 C   
ENDBRANCH   8  10
ENDBRANCH   7   8
ENDBRANCH   1   7
BRANCH   3  18
ATOM     18  C12 UNL     1      -2.327  -0.364  -0.738  1.00  0.00     0.117 C   
BRANCH  18  19
ATOM     19  N2  UNL     1      -1.982  -1.532   0.156  1.00  0.00     0.249 N   
ATOM     20  H13 UNL     1      -2.459  -2.388  -0.133  1.00  0.00     0.199 HD  
ATOM     21  H14 UNL     1      -2.328  -1.305   1.101  1.00  0.00     0.199 HD  
BRANCH  19  22
ATOM     22  C13 UNL     1      -0.524  -1.834   0.276  1.00  0.00     0.164 C   
BRANCH  22  23
ATOM     23  C14 UNL     1      -0.314  -3.058   1.124  1.00  0.00    -0.002 A   
ATOM     24  C15 UNL     1      -0.065  -2.929   2.510  1.00  0.00     0.012 A   
ATOM     25  C19 UNL     1      -0.423  -4.339   0.555  1.00  0.00     0.045 A   
ATOM     26  C16 UNL     1       0.087  -4.058   3.321  1.00  0.00     0.037 A   
ATOM     27  C18 UNL     1      -0.273  -5.431   1.385  1.00  0.00     0.109 A   
ATOM     28  C17 UNL     1      -0.025  -5.295   2.728  1.00  0.00     0.108 A   
ATOM     29  O2  UNL     1      -0.363  -6.731   1.001  1.00  0.00    -0.316 OA  
ATOM     30  O3  UNL     1       0.080  -6.494   3.358  1.00  0.00    -0.316 OA  
ATOM     31  C20 UNL     1      -0.099  -7.405   2.253  1.00  0.00     0.337 C   
ENDBRANCH  22  23
ENDBRANCH  19  22
ENDBRANCH  18  19
BRANCH  18  32
ATOM     32  C21 UNL     1      -3.871  -0.298  -0.946  1.00  0.00     0.043 C   
ATOM     33  C22 UNL     1      -4.498  -1.590  -1.511  1.00  0.00     0.010 C   
ATOM     34  C26 UNL     1      -4.280   0.869  -1.876  1.00  0.00     0.010 C   
ATOM     35  C23 UNL     1      -4.078  -1.865  -2.954  1.00  0.00     0.001 C   
ATOM     36  C25 UNL     1      -3.872   0.635  -3.331  1.00  0.00     0.001 C   
ATOM     37  C24 UNL     1      -4.413  -0.688  -3.866  1.00  0.00     0.000 C   
ENDBRANCH  18  32
ENDBRANCH   3  18
TORSDOF 8
