REMARK SMILES COc1ccc(C(=O)n2cc([C@@H]([NH2+]Cc3ccc4c(c3)OCO4)C3CCCC3)nn2)cn1
REMARK SMILES IDX 9 1 10 2 11 3 29 4 30 5 7 6 8 7 6 8 3 9 4 10 32 11 5 12
REMARK SMILES IDX 31 13 2 14 1 15 12 16 13 17 14 20 15 21 16 22 20 23 17 24
REMARK SMILES IDX 19 25 18 26 21 27 23 28 22 29 24 30 25 31 28 32 26 33 27 34
REMARK H PARENT 13 18 13 19
ROOT
ATOM     1   N1  UNL     1       0.671   1.479   0.104  1.00  0.00    -0.143 N   
ATOM     2   C7  UNL     1       0.691   0.583  -0.949  1.00  0.00     0.139 A   
ATOM     3   C8  UNL     1      -0.418  -0.210  -0.762  1.00  0.00     0.128 A   
ATOM     4   N3  UNL     1      -1.107   0.244   0.330  1.00  0.00    -0.131 NA  
ATOM     5   N4  UNL     1      -0.451   1.275   0.836  1.00  0.00    -0.068 NA  
ENDROOT
BRANCH   1   6
ATOM     6   C6  UNL     1       1.659   2.401   0.482  1.00  0.00     0.272 C   
ATOM     7   O2  UNL     1       2.694   2.383  -0.184  1.00  0.00    -0.269 OA  
BRANCH   6   8
ATOM     8   C5  UNL     1       1.568   3.342   1.623  1.00  0.00     0.058 A   
ATOM     9   C2  UNL     1       1.415   5.109   3.715  1.00  0.00     0.166 A   
ATOM     10  C3  UNL     1       2.662   4.635   3.340  1.00  0.00     0.055 A   
ATOM     11  N5  UNL     1       0.267   4.753   3.100  1.00  0.00    -0.232 NA  
ATOM     12  C4  UNL     1       2.740   3.742   2.272  1.00  0.00     0.020 A   
ATOM     13  C23 UNL     1       0.368   3.884   2.064  1.00  0.00     0.127 A   
BRANCH   9  14
ATOM     14  O1  UNL     1       1.389   5.987   4.778  1.00  0.00    -0.333 OA  
ATOM     15  C1  UNL     1       0.076   6.419   5.118  1.00  0.00     0.205 C   
ENDBRANCH   9  14
ENDBRANCH   6   8
ENDBRANCH   1   6
BRANCH   3  16
ATOM     16  C9  UNL     1      -0.844  -1.477  -1.438  1.00  0.00     0.117 C   
BRANCH  16  17
ATOM     17  N2  UNL     1      -1.232  -2.506  -0.388  1.00  0.00     0.249 N   
ATOM     18  H8  UNL     1      -1.657  -1.978   0.389  1.00  0.00     0.199 HD  
ATOM     19  H9  UNL     1      -1.966  -3.121  -0.751  1.00  0.00     0.199 HD  
BRANCH  17  20
ATOM     20  C10 UNL     1      -0.132  -3.358   0.161  1.00  0.00     0.164 C   
BRANCH  20  21
ATOM     21  C11 UNL     1       0.949  -2.588   0.864  1.00  0.00    -0.002 A   
ATOM     22  C12 UNL     1       0.709  -2.009   2.135  1.00  0.00     0.012 A   
ATOM     23  C16 UNL     1       2.186  -2.373   0.232  1.00  0.00     0.045 A   
ATOM     24  C13 UNL     1       1.669  -1.195   2.748  1.00  0.00     0.037 A   
ATOM     25  C15 UNL     1       3.106  -1.559   0.861  1.00  0.00     0.109 A   
ATOM     26  C14 UNL     1       2.852  -0.977   2.078  1.00  0.00     0.108 A   
ATOM     27  O3  UNL     1       4.319  -1.207   0.360  1.00  0.00    -0.316 OA  
ATOM     28  O4  UNL     1       3.870  -0.181   2.495  1.00  0.00    -0.316 OA  
ATOM     29  C17 UNL     1       4.809  -0.340   1.408  1.00  0.00     0.337 C   
ENDBRANCH  20  21
ENDBRANCH  17  20
ENDBRANCH  16  17
BRANCH  16  30
ATOM     30  C18 UNL     1      -2.026  -1.318  -2.414  1.00  0.00     0.043 C   
ATOM     31  C19 UNL     1      -3.354  -0.840  -1.816  1.00  0.00     0.010 C   
ATOM     32  C22 UNL     1      -1.764  -0.364  -3.594  1.00  0.00     0.010 C   
ATOM     33  C20 UNL     1      -4.129  -0.381  -3.039  1.00  0.00     0.001 C   
ATOM     34  C21 UNL     1      -3.084   0.365  -3.853  1.00  0.00     0.001 C   
ENDBRANCH  16  30
ENDBRANCH   3  16
TORSDOF 8
