REMARK SMILES O[C@@H](Cn1cc([C@@H]([NH2+]Cc2ccc3c(c2)OCO3)C2CCCCC2)nn1)c1ccccc1F
REMARK SMILES IDX 4 1 5 2 6 3 25 4 26 5 3 7 2 8 1 9 27 11 28 12 32 13 29 14
REMARK SMILES IDX 31 15 30 16 33 17 7 18 8 19 9 22 10 23 11 24 15 25 12 26
REMARK SMILES IDX 14 27 13 28 16 29 18 30 17 31 19 32 20 33 24 34 21 35 23 36
REMARK SMILES IDX 22 37
REMARK H PARENT 5 6 1 10 8 20 8 21
ROOT
ATOM     1   N1  UNL     1       0.526   1.398   1.901  1.00  0.00    -0.209 N   
ATOM     2   C3  UNL     1       1.065   0.693   0.863  1.00  0.00     0.045 A   
ATOM     3   C4  UNL     1       0.457   1.229  -0.250  1.00  0.00     0.127 A   
ATOM     4   N3  UNL     1      -0.379   2.247   0.140  1.00  0.00    -0.132 NA  
ATOM     5   N4  UNL     1      -0.325   2.341   1.457  1.00  0.00    -0.076 NA  
ATOM     6   H5  UNL     1       1.772  -0.113   1.013  1.00  0.00     0.083 HD  
ENDROOT
BRANCH   1   7
ATOM     7   C2  UNL     1       0.763   1.239   3.317  1.00  0.00     0.170 C   
BRANCH   7   8
ATOM     8   C1  UNL     1      -0.327   0.418   4.019  1.00  0.00     0.167 C   
BRANCH   8   9
ATOM     9   O1  UNL     1      -0.261   0.675   5.427  1.00  0.00    -0.387 OA  
ATOM     10  H1  UNL     1      -0.741   1.506   5.603  1.00  0.00     0.211 HD  
ENDBRANCH   8   9
BRANCH   8  11
ATOM     11  C20 UNL     1      -0.165  -1.070   3.789  1.00  0.00     0.018 A   
ATOM     12  C21 UNL     1       0.599  -1.879   4.646  1.00  0.00     0.009 A   
ATOM     13  C25 UNL     1      -0.763  -1.674   2.677  1.00  0.00     0.129 A   
ATOM     14  C22 UNL     1       0.747  -3.245   4.391  1.00  0.00     0.001 A   
ATOM     15  C24 UNL     1      -0.613  -3.033   2.413  1.00  0.00     0.039 A   
ATOM     16  C23 UNL     1       0.143  -3.823   3.275  1.00  0.00     0.003 A   
ATOM     17  F1  UNL     1      -1.476  -0.929   1.821  1.00  0.00    -0.207 F   
ENDBRANCH   8  11
ENDBRANCH   7   8
ENDBRANCH   1   7
BRANCH   3  18
ATOM     18  C5  UNL     1       0.543   0.873  -1.701  1.00  0.00     0.117 C   
BRANCH  18  19
ATOM     19  N2  UNL     1      -0.612   1.505  -2.445  1.00  0.00     0.249 N   
ATOM     20  H7  UNL     1      -0.281   2.172  -3.148  1.00  0.00     0.199 HD  
ATOM     21  H8  UNL     1      -1.108   2.085  -1.746  1.00  0.00     0.199 HD  
BRANCH  19  22
ATOM     22  C6  UNL     1      -1.598   0.580  -3.062  1.00  0.00     0.164 C   
BRANCH  22  23
ATOM     23  C7  UNL     1      -2.378  -0.238  -2.070  1.00  0.00    -0.002 A   
ATOM     24  C8  UNL     1      -3.303   0.382  -1.197  1.00  0.00     0.012 A   
ATOM     25  C12 UNL     1      -2.202  -1.631  -2.009  1.00  0.00     0.045 A   
ATOM     26  C9  UNL     1      -4.049  -0.371  -0.283  1.00  0.00     0.037 A   
ATOM     27  C11 UNL     1      -2.955  -2.344  -1.099  1.00  0.00     0.109 A   
ATOM     28  C10 UNL     1      -3.856  -1.733  -0.263  1.00  0.00     0.108 A   
ATOM     29  O2  UNL     1      -2.913  -3.690  -0.923  1.00  0.00    -0.316 OA  
ATOM     30  O3  UNL     1      -4.499  -2.617   0.541  1.00  0.00    -0.316 OA  
ATOM     31  C13 UNL     1      -3.956  -3.866   0.065  1.00  0.00     0.337 C   
ENDBRANCH  22  23
ENDBRANCH  19  22
ENDBRANCH  18  19
BRANCH  18  32
ATOM     32  C14 UNL     1       1.899   1.278  -2.338  1.00  0.00     0.043 C   
ATOM     33  C15 UNL     1       2.037   0.731  -3.772  1.00  0.00     0.010 C   
ATOM     34  C19 UNL     1       2.185   2.793  -2.308  1.00  0.00     0.010 C   
ATOM     35  C16 UNL     1       3.397   1.067  -4.377  1.00  0.00     0.001 C   
ATOM     36  C18 UNL     1       3.545   3.123  -2.925  1.00  0.00     0.001 C   
ATOM     37  C17 UNL     1       3.672   2.567  -4.339  1.00  0.00     0.000 C   
ENDBRANCH  18  32
ENDBRANCH   3  18
TORSDOF 9
