REMARK SMILES O[C@H](Cn1cc([C@@H]([NH2+]Cc2ccc3c(c2)OCO3)C2CCCCC2)nn1)c1ccccc1F
REMARK SMILES IDX 4 1 5 2 6 3 25 4 26 5 3 7 2 8 1 9 27 11 28 12 32 13 29 14
REMARK SMILES IDX 31 15 30 16 33 17 7 18 8 19 9 22 10 23 11 24 15 25 12 26
REMARK SMILES IDX 14 27 13 28 16 29 18 30 17 31 19 32 20 33 24 34 21 35 23 36
REMARK SMILES IDX 22 37
REMARK H PARENT 5 6 1 10 8 20 8 21
ROOT
ATOM     1   N1  UNL     1       3.112  -0.659  -1.829  1.00  0.00    -0.209 N   
ATOM     2   C3  UNL     1       2.171  -1.573  -1.447  1.00  0.00     0.045 A   
ATOM     3   C4  UNL     1       1.387  -0.884  -0.547  1.00  0.00     0.127 A   
ATOM     4   N3  UNL     1       1.899   0.379  -0.382  1.00  0.00    -0.132 NA  
ATOM     5   N4  UNL     1       2.962   0.497  -1.158  1.00  0.00    -0.076 NA  
ATOM     6   H5  UNL     1       2.130  -2.572  -1.860  1.00  0.00     0.083 HD  
ENDROOT
BRANCH   1   7
ATOM     7   C2  UNL     1       4.177  -0.804  -2.797  1.00  0.00     0.170 C   
BRANCH   7   8
ATOM     8   C1  UNL     1       3.784  -0.282  -4.183  1.00  0.00     0.167 C   
BRANCH   8   9
ATOM     9   O1  UNL     1       4.982  -0.085  -4.944  1.00  0.00    -0.387 OA  
ATOM     10  H1  UNL     1       4.717   0.320  -5.791  1.00  0.00     0.211 HD  
ENDBRANCH   8   9
BRANCH   8  11
ATOM     11  C20 UNL     1       2.881  -1.242  -4.928  1.00  0.00     0.018 A   
ATOM     12  C21 UNL     1       3.402  -2.352  -5.615  1.00  0.00     0.009 A   
ATOM     13  C25 UNL     1       1.494  -1.064  -4.916  1.00  0.00     0.129 A   
ATOM     14  C22 UNL     1       2.552  -3.238  -6.282  1.00  0.00     0.001 A   
ATOM     15  C24 UNL     1       0.640  -1.941  -5.583  1.00  0.00     0.039 A   
ATOM     16  C23 UNL     1       1.171  -3.029  -6.275  1.00  0.00     0.003 A   
ATOM     17  F1  UNL     1       0.959  -0.039  -4.235  1.00  0.00    -0.207 F   
ENDBRANCH   8  11
ENDBRANCH   7   8
ENDBRANCH   1   7
BRANCH   3  18
ATOM     18  C5  UNL     1       0.170  -1.282   0.227  1.00  0.00     0.117 C   
BRANCH  18  19
ATOM     19  N2  UNL     1       0.058  -0.439   1.469  1.00  0.00     0.249 N   
ATOM     20  H7  UNL     1      -0.893  -0.417   1.847  1.00  0.00     0.199 HD  
ATOM     21  H8  UNL     1       0.276   0.529   1.185  1.00  0.00     0.199 HD  
BRANCH  19  22
ATOM     22  C6  UNL     1       1.010  -0.794   2.558  1.00  0.00     0.164 C   
BRANCH  22  23
ATOM     23  C7  UNL     1       0.852   0.140   3.725  1.00  0.00    -0.002 A   
ATOM     24  C8  UNL     1      -0.040  -0.174   4.778  1.00  0.00     0.012 A   
ATOM     25  C12 UNL     1       1.555   1.357   3.749  1.00  0.00     0.045 A   
ATOM     26  C9  UNL     1      -0.219   0.706   5.851  1.00  0.00     0.037 A   
ATOM     27  C11 UNL     1       1.352   2.204   4.819  1.00  0.00     0.109 A   
ATOM     28  C10 UNL     1       0.493   1.886   5.842  1.00  0.00     0.108 A   
ATOM     29  O2  UNL     1       1.940   3.416   4.994  1.00  0.00    -0.316 OA  
ATOM     30  O3  UNL     1       0.445   2.852   6.797  1.00  0.00    -0.316 OA  
ATOM     31  C13 UNL     1       1.356   3.828   6.250  1.00  0.00     0.337 C   
ENDBRANCH  22  23
ENDBRANCH  19  22
ENDBRANCH  18  19
BRANCH  18  32
ATOM     32  C14 UNL     1      -1.124  -1.172  -0.626  1.00  0.00     0.043 C   
ATOM     33  C15 UNL     1      -2.327  -1.841   0.069  1.00  0.00     0.010 C   
ATOM     34  C19 UNL     1      -1.481   0.270  -1.040  1.00  0.00     0.010 C   
ATOM     35  C16 UNL     1      -3.582  -1.791  -0.801  1.00  0.00     0.001 C   
ATOM     36  C18 UNL     1      -2.741   0.314  -1.904  1.00  0.00     0.001 C   
ATOM     37  C17 UNL     1      -3.920  -0.363  -1.216  1.00  0.00     0.000 C   
ENDBRANCH  18  32
ENDBRANCH   3  18
TORSDOF 9
