REMARK SMILES CC(C)C[C@H]([NH2+]Cc1ccc2c(c1)OCO2)c1cn([C@@H](CO)c2ccc(O)cc2)nn1
REMARK SMILES IDX 17 1 18 2 19 3 30 4 31 5 5 7 4 8 2 9 1 10 3 11 6 12 7 15
REMARK SMILES IDX 8 16 9 17 13 18 10 19 12 20 11 21 14 22 16 23 15 24 20 25
REMARK SMILES IDX 21 26 22 27 23 29 24 30 29 31 25 32 28 33 26 34 27 35
REMARK H PARENT 18 6 6 13 6 14 22 28 27 36
ROOT
ATOM     1   C14 UNL     1       1.446   0.274  -0.075  1.00  0.00     0.127 A   
ATOM     2   C15 UNL     1       1.414  -0.754   0.838  1.00  0.00     0.046 A   
ATOM     3   N2  UNL     1       0.851  -0.191   1.955  1.00  0.00    -0.202 N   
ATOM     4   N3  UNL     1       0.538   1.103   1.727  1.00  0.00    -0.075 NA  
ATOM     5   N4  UNL     1       0.900   1.398   0.490  1.00  0.00    -0.132 NA  
ATOM     6   H20 UNL     1       1.721  -1.789   0.807  1.00  0.00     0.083 HD  
ENDROOT
BRANCH   1   7
ATOM     7   C5  UNL     1       1.898   0.322  -1.498  1.00  0.00     0.114 C   
BRANCH   7   8
ATOM     8   C4  UNL     1       3.366   0.769  -1.609  1.00  0.00     0.064 C   
BRANCH   8   9
ATOM     9   C2  UNL     1       3.966   0.728  -3.032  1.00  0.00    -0.012 C   
ATOM     10  C1  UNL     1       5.388   1.296  -3.003  1.00  0.00     0.007 C   
ATOM     11  C3  UNL     1       3.993  -0.688  -3.608  1.00  0.00     0.007 C   
ENDBRANCH   8   9
ENDBRANCH   7   8
BRANCH   7  12
ATOM     12  N1  UNL     1       1.023   1.294  -2.258  1.00  0.00     0.249 N   
ATOM     13  H11 UNL     1       0.487   1.808  -1.537  1.00  0.00     0.199 HD  
ATOM     14  H12 UNL     1       1.586   2.015  -2.720  1.00  0.00     0.199 HD  
BRANCH  12  15
ATOM     15  C6  UNL     1       0.060   0.700  -3.223  1.00  0.00     0.164 C   
BRANCH  15  16
ATOM     16  C7  UNL     1      -0.956  -0.205  -2.582  1.00  0.00    -0.002 A   
ATOM     17  C8  UNL     1      -0.901  -1.605  -2.790  1.00  0.00     0.012 A   
ATOM     18  C12 UNL     1      -1.962   0.333  -1.757  1.00  0.00     0.045 A   
ATOM     19  C9  UNL     1      -1.831  -2.460  -2.188  1.00  0.00     0.037 A   
ATOM     20  C11 UNL     1      -2.863  -0.537  -1.178  1.00  0.00     0.109 A   
ATOM     21  C10 UNL     1      -2.799  -1.894  -1.387  1.00  0.00     0.108 A   
ATOM     22  O1  UNL     1      -3.893  -0.182  -0.368  1.00  0.00    -0.316 OA  
ATOM     23  O2  UNL     1      -3.782  -2.566  -0.734  1.00  0.00    -0.316 OA  
ATOM     24  C13 UNL     1      -4.493  -1.474  -0.110  1.00  0.00     0.337 C   
ENDBRANCH  15  16
ENDBRANCH  12  15
ENDBRANCH   7  12
ENDBRANCH   1   7
BRANCH   3  25
ATOM     25  C16 UNL     1       0.601  -0.829   3.249  1.00  0.00     0.155 C   
BRANCH  25  26
ATOM     26  C17 UNL     1       1.217  -0.032   4.411  1.00  0.00     0.185 C   
BRANCH  26  27
ATOM     27  O3  UNL     1       2.644  -0.146   4.385  1.00  0.00    -0.394 OA  
ATOM     28  H24 UNL     1       2.979   0.416   5.114  1.00  0.00     0.210 HD  
ENDBRANCH  26  27
ENDBRANCH  25  26
BRANCH  25  29
ATOM     29  C18 UNL     1      -0.883  -1.118   3.426  1.00  0.00    -0.023 A   
ATOM     30  C19 UNL     1      -1.814  -0.095   3.685  1.00  0.00     0.008 A   
ATOM     31  C23 UNL     1      -1.350  -2.443   3.335  1.00  0.00     0.008 A   
ATOM     32  C20 UNL     1      -3.169  -0.388   3.861  1.00  0.00     0.033 A   
ATOM     33  C22 UNL     1      -2.704  -2.735   3.511  1.00  0.00     0.033 A   
ATOM     34  C21 UNL     1      -3.601  -1.708   3.778  1.00  0.00     0.071 A   
BRANCH  34  35
ATOM     35  O4  UNL     1      -4.914  -2.040   3.942  1.00  0.00    -0.361 OA  
ATOM     36  H27 UNL     1      -5.415  -1.248   4.200  1.00  0.00     0.218 HD  
ENDBRANCH  34  35
ENDBRANCH  25  29
ENDBRANCH   3  25
TORSDOF 11
