REMARK SMILES CC(C)C[C@H]([NH2+]Cc1ccc2c(c1)OCO2)c1cn([C@H](CO)c2ccc(O)cc2)nn1
REMARK SMILES IDX 17 1 18 2 19 3 30 4 31 5 5 7 4 8 2 9 1 10 3 11 6 12 7 15
REMARK SMILES IDX 8 16 9 17 13 18 10 19 12 20 11 21 14 22 16 23 15 24 20 25
REMARK SMILES IDX 21 26 22 27 23 29 24 30 29 31 25 32 28 33 26 34 27 35
REMARK H PARENT 18 6 6 13 6 14 22 28 27 36
ROOT
ATOM     1   C14 UNL     1       0.700  -0.629  -0.452  1.00  0.00     0.127 A   
ATOM     2   C15 UNL     1      -0.118  -0.917   0.617  1.00  0.00     0.046 A   
ATOM     3   N2  UNL     1       0.057  -2.261   0.819  1.00  0.00    -0.202 N   
ATOM     4   N3  UNL     1       0.950  -2.760  -0.064  1.00  0.00    -0.075 NA  
ATOM     5   N4  UNL     1       1.331  -1.776  -0.860  1.00  0.00    -0.132 NA  
ATOM     6   H20 UNL     1      -0.771  -0.319   1.237  1.00  0.00     0.083 HD  
ENDROOT
BRANCH   1   7
ATOM     7   C5  UNL     1       1.002   0.666  -1.132  1.00  0.00     0.114 C   
BRANCH   7   8
ATOM     8   C4  UNL     1       0.045   0.894  -2.321  1.00  0.00     0.064 C   
BRANCH   8   9
ATOM     9   C2  UNL     1       0.199   2.227  -3.083  1.00  0.00    -0.012 C   
ATOM     10  C1  UNL     1       0.070   3.446  -2.169  1.00  0.00     0.007 C   
ATOM     11  C3  UNL     1      -0.852   2.305  -4.196  1.00  0.00     0.007 C   
ENDBRANCH   8   9
ENDBRANCH   7   8
BRANCH   7  12
ATOM     12  N1  UNL     1       2.426   0.689  -1.634  1.00  0.00     0.249 N   
ATOM     13  H11 UNL     1       2.587   1.510  -2.222  1.00  0.00     0.199 HD  
ATOM     14  H12 UNL     1       2.536  -0.144  -2.228  1.00  0.00     0.199 HD  
BRANCH  12  15
ATOM     15  C6  UNL     1       3.498   0.636  -0.593  1.00  0.00     0.164 C   
BRANCH  15  16
ATOM     16  C7  UNL     1       3.487   1.824   0.326  1.00  0.00    -0.002 A   
ATOM     17  C8  UNL     1       3.026   1.687   1.657  1.00  0.00     0.012 A   
ATOM     18  C12 UNL     1       3.898   3.086  -0.137  1.00  0.00     0.045 A   
ATOM     19  C9  UNL     1       2.966   2.790   2.513  1.00  0.00     0.037 A   
ATOM     20  C11 UNL     1       3.830   4.151   0.735  1.00  0.00     0.109 A   
ATOM     21  C10 UNL     1       3.375   4.008   2.022  1.00  0.00     0.108 A   
ATOM     22  O1  UNL     1       4.176   5.434   0.446  1.00  0.00    -0.316 OA  
ATOM     23  O2  UNL     1       3.383   5.181   2.705  1.00  0.00    -0.316 OA  
ATOM     24  C13 UNL     1       3.940   6.074   1.719  1.00  0.00     0.337 C   
ENDBRANCH  15  16
ENDBRANCH  12  15
ENDBRANCH   7  12
ENDBRANCH   1   7
BRANCH   3  25
ATOM     25  C16 UNL     1      -0.544  -3.091   1.866  1.00  0.00     0.155 C   
BRANCH  25  26
ATOM     26  C17 UNL     1       0.525  -3.720   2.775  1.00  0.00     0.185 C   
BRANCH  26  27
ATOM     27  O3  UNL     1       1.170  -2.707   3.555  1.00  0.00    -0.394 OA  
ATOM     28  H24 UNL     1       1.755  -3.169   4.184  1.00  0.00     0.210 HD  
ENDBRANCH  26  27
ENDBRANCH  25  26
BRANCH  25  29
ATOM     29  C18 UNL     1      -1.513  -4.095   1.264  1.00  0.00    -0.023 A   
ATOM     30  C19 UNL     1      -1.065  -5.251   0.597  1.00  0.00     0.008 A   
ATOM     31  C23 UNL     1      -2.898  -3.869   1.358  1.00  0.00     0.008 A   
ATOM     32  C20 UNL     1      -1.975  -6.158   0.046  1.00  0.00     0.033 A   
ATOM     33  C22 UNL     1      -3.805  -4.775   0.805  1.00  0.00     0.033 A   
ATOM     34  C21 UNL     1      -3.338  -5.911   0.155  1.00  0.00     0.071 A   
BRANCH  34  35
ATOM     35  O4  UNL     1      -4.261  -6.766  -0.371  1.00  0.00    -0.361 OA  
ATOM     36  H27 UNL     1      -3.798  -7.528  -0.762  1.00  0.00     0.218 HD  
ENDBRANCH  34  35
ENDBRANCH  25  29
ENDBRANCH   3  25
TORSDOF 11
