REMARK SMILES CCOc1cccc(Cn2cc([C@@H]([NH2+]Cc3ccc4c(c3)OCO4)C3CCCCC3)nn2)c1
REMARK SMILES IDX 10 1 11 2 12 3 31 4 32 5 9 7 8 8 4 9 5 10 33 11 6 12 7 13
REMARK SMILES IDX 3 14 2 15 1 16 13 17 14 18 15 21 16 22 17 23 21 24 18 25
REMARK SMILES IDX 20 26 19 27 22 28 24 29 23 30 25 31 26 32 30 33 27 34 29 35
REMARK SMILES IDX 28 36
REMARK H PARENT 11 6 14 19 14 20
ROOT
ATOM     1   N1  UNL     1      -1.204  -2.680  -0.474  1.00  0.00    -0.208 N   
ATOM     2   C9  UNL     1      -0.962  -2.008   0.696  1.00  0.00     0.046 A   
ATOM     3   C10 UNL     1      -1.023  -0.679   0.341  1.00  0.00     0.127 A   
ATOM     4   N3  UNL     1      -1.302  -0.587  -0.999  1.00  0.00    -0.132 NA  
ATOM     5   N4  UNL     1      -1.431  -1.812  -1.478  1.00  0.00    -0.076 NA  
ATOM     6   H11 UNL     1      -0.760  -2.520   1.627  1.00  0.00     0.083 HD  
ENDROOT
BRANCH   1   7
ATOM     7   C8  UNL     1      -1.290  -4.114  -0.721  1.00  0.00     0.169 C   
BRANCH   7   8
ATOM     8   C7  UNL     1      -0.330  -4.915   0.121  1.00  0.00    -0.026 A   
ATOM     9   C3  UNL     1       1.958  -5.490   0.757  1.00  0.00     0.075 A   
ATOM     10  C4  UNL     1       1.465  -6.399   1.692  1.00  0.00     0.033 A   
ATOM     11  C26 UNL     1       1.059  -4.762  -0.030  1.00  0.00     0.038 A   
ATOM     12  C5  UNL     1       0.085  -6.571   1.843  1.00  0.00     0.003 A   
ATOM     13  C6  UNL     1      -0.808  -5.834   1.065  1.00  0.00     0.005 A   
BRANCH   9  14
ATOM     14  O1  UNL     1       3.275  -5.212   0.520  1.00  0.00    -0.346 OA  
BRANCH  14  15
ATOM     15  C2  UNL     1       4.242  -5.970   1.250  1.00  0.00     0.164 C   
ATOM     16  C1  UNL     1       5.620  -5.491   0.835  1.00  0.00     0.035 C   
ENDBRANCH  14  15
ENDBRANCH   9  14
ENDBRANCH   7   8
ENDBRANCH   1   7
BRANCH   3  17
ATOM     17  C11 UNL     1      -0.779   0.573   1.126  1.00  0.00     0.117 C   
BRANCH  17  18
ATOM     18  N2  UNL     1      -0.266   1.621   0.168  1.00  0.00     0.249 N   
ATOM     19  H13 UNL     1      -1.003   1.815  -0.526  1.00  0.00     0.199 HD  
ATOM     20  H14 UNL     1       0.462   1.173  -0.407  1.00  0.00     0.199 HD  
BRANCH  18  21
ATOM     21  C12 UNL     1       0.281   2.879   0.724  1.00  0.00     0.164 C   
BRANCH  21  22
ATOM     22  C13 UNL     1       0.916   3.703  -0.362  1.00  0.00    -0.002 A   
ATOM     23  C14 UNL     1       2.312   3.646  -0.585  1.00  0.00     0.012 A   
ATOM     24  C18 UNL     1       0.114   4.497  -1.200  1.00  0.00     0.045 A   
ATOM     25  C15 UNL     1       2.906   4.380  -1.619  1.00  0.00     0.037 A   
ATOM     26  C17 UNL     1       0.730   5.204  -2.212  1.00  0.00     0.109 A   
ATOM     27  C16 UNL     1       2.086   5.149  -2.414  1.00  0.00     0.108 A   
ATOM     28  O2  UNL     1       0.102   6.010  -3.107  1.00  0.00    -0.316 OA  
ATOM     29  O3  UNL     1       2.485   5.919  -3.459  1.00  0.00    -0.316 OA  
ATOM     30  C19 UNL     1       1.222   6.462  -3.901  1.00  0.00     0.337 C   
ENDBRANCH  21  22
ENDBRANCH  18  21
ENDBRANCH  17  18
BRANCH  17  31
ATOM     31  C20 UNL     1      -2.019   1.095   1.901  1.00  0.00     0.043 C   
ATOM     32  C21 UNL     1      -2.448   0.118   3.015  1.00  0.00     0.010 C   
ATOM     33  C25 UNL     1      -3.225   1.442   1.005  1.00  0.00     0.010 C   
ATOM     34  C22 UNL     1      -3.615   0.671   3.829  1.00  0.00     0.001 C   
ATOM     35  C24 UNL     1      -4.404   1.973   1.821  1.00  0.00     0.001 C   
ATOM     36  C23 UNL     1      -4.803   1.010   2.935  1.00  0.00     0.000 C   
ENDBRANCH  17  31
ENDBRANCH   3  17
TORSDOF 9
