REMARK SMILES CC(C)[C@H]([NH2+]Cc1ccc2c(c1)OCO2)c1cn(Cc2cc(F)c(F)c(F)c2)nn1
REMARK SMILES IDX 16 1 17 2 18 3 29 4 30 5 4 7 2 8 1 9 3 10 5 11 6 14 7 15
REMARK SMILES IDX 8 16 12 17 9 18 11 19 10 20 13 21 15 22 14 23 19 24 20 25
REMARK SMILES IDX 21 26 28 27 22 28 26 29 24 30 23 31 27 32 25 33
REMARK H PARENT 17 6 5 12 5 13
ROOT
ATOM     1   C13 UNL     1      -0.001  -1.087   1.130  1.00  0.00     0.127 A   
ATOM     2   C14 UNL     1       0.614  -1.132  -0.101  1.00  0.00     0.046 A   
ATOM     3   N2  UNL     1      -0.422  -1.021  -0.989  1.00  0.00    -0.208 N   
ATOM     4   N3  UNL     1      -1.602  -0.935  -0.345  1.00  0.00    -0.076 NA  
ATOM     5   N4  UNL     1      -1.357  -0.971   0.954  1.00  0.00    -0.132 NA  
ATOM     6   H18 UNL     1       1.646  -1.208  -0.418  1.00  0.00     0.083 HD  
ENDROOT
BRANCH   1   7
ATOM     7   C4  UNL     1       0.553  -1.090   2.521  1.00  0.00     0.117 C   
BRANCH   7   8
ATOM     8   C2  UNL     1       0.736  -2.525   3.080  1.00  0.00     0.037 C   
ATOM     9   C1  UNL     1      -0.574  -3.296   3.285  1.00  0.00     0.014 C   
ATOM     10  C3  UNL     1       1.543  -2.519   4.385  1.00  0.00     0.014 C   
ENDBRANCH   7   8
BRANCH   7  11
ATOM     11  N1  UNL     1      -0.346  -0.275   3.423  1.00  0.00     0.249 N   
ATOM     12  H9  UNL     1      -1.269  -0.260   2.959  1.00  0.00     0.199 HD  
ATOM     13  H10 UNL     1      -0.499  -0.745   4.319  1.00  0.00     0.199 HD  
BRANCH  11  14
ATOM     14  C5  UNL     1       0.073   1.131   3.682  1.00  0.00     0.164 C   
BRANCH  14  15
ATOM     15  C6  UNL     1       0.233   1.976   2.449  1.00  0.00    -0.002 A   
ATOM     16  C7  UNL     1      -0.892   2.335   1.668  1.00  0.00     0.012 A   
ATOM     17  C11 UNL     1       1.511   2.411   2.054  1.00  0.00     0.045 A   
ATOM     18  C8  UNL     1      -0.750   3.111   0.511  1.00  0.00     0.037 A   
ATOM     19  C10 UNL     1       1.616   3.177   0.912  1.00  0.00     0.109 A   
ATOM     20  C9  UNL     1       0.518   3.520   0.164  1.00  0.00     0.108 A   
ATOM     21  O1  UNL     1       2.771   3.682   0.404  1.00  0.00    -0.316 OA  
ATOM     22  O2  UNL     1       0.843   4.291  -0.906  1.00  0.00    -0.316 OA  
ATOM     23  C12 UNL     1       2.265   4.452  -0.713  1.00  0.00     0.337 C   
ENDBRANCH  14  15
ENDBRANCH  11  14
ENDBRANCH   7  11
ENDBRANCH   1   7
BRANCH   3  24
ATOM     24  C15 UNL     1      -0.367  -0.998  -2.440  1.00  0.00     0.169 C   
BRANCH  24  25
ATOM     25  C16 UNL     1      -0.142   0.402  -2.952  1.00  0.00    -0.023 A   
ATOM     26  C17 UNL     1      -1.221   1.293  -3.093  1.00  0.00     0.048 A   
ATOM     27  C21 UNL     1       1.148   0.851  -3.277  1.00  0.00     0.048 A   
ATOM     28  C18 UNL     1      -1.005   2.591  -3.558  1.00  0.00     0.162 A   
ATOM     29  C20 UNL     1       1.342   2.154  -3.738  1.00  0.00     0.162 A   
ATOM     30  C19 UNL     1       0.271   3.024  -3.885  1.00  0.00     0.194 A   
ATOM     31  F1  UNL     1      -2.051   3.421  -3.681  1.00  0.00    -0.204 F   
ATOM     32  F3  UNL     1       2.588   2.560  -4.021  1.00  0.00    -0.204 F   
ATOM     33  F2  UNL     1       0.474   4.275  -4.321  1.00  0.00    -0.201 F   
ENDBRANCH  24  25
ENDBRANCH   3  24
TORSDOF 7
