REMARK SMILES Cc1cc(N([O-])[O-])cc(-n2cc([C@@H]([NH2+]Cc3ccc4c(c3)OCO4)C3CCCCC3)nn2)c1
REMARK SMILES IDX 10 1 11 2 12 3 31 4 32 5 9 6 2 7 33 8 3 9 4 10 8 11 1 12
REMARK SMILES IDX 5 13 6 14 7 15 13 16 14 17 15 20 16 21 17 22 21 23 18 24
REMARK SMILES IDX 20 25 19 26 22 27 24 28 23 29 25 30 26 31 30 32 27 33 29 34
REMARK SMILES IDX 28 35
REMARK H PARENT 14 18 14 19
ROOT
ATOM     1   N1  UNL     1       0.891   2.619  -0.023  1.00  0.00    -0.181 N   
ATOM     2   C5  UNL     1       0.880   1.244  -0.154  1.00  0.00     0.135 A   
ATOM     3   C6  UNL     1      -0.421   0.869   0.106  1.00  0.00     0.127 A   
ATOM     4   N3  UNL     1      -1.151   1.982   0.409  1.00  0.00    -0.131 NA  
ATOM     5   N4  UNL     1      -0.350   3.031   0.339  1.00  0.00    -0.071 NA  
ENDROOT
BRANCH   1   6
ATOM     6   C4  UNL     1       1.965   3.531  -0.192  1.00  0.00     0.060 A   
ATOM     7   C2  UNL     1       4.304   3.992  -0.711  1.00  0.00    -0.047 A   
ATOM     8   C3  UNL     1       3.243   3.083  -0.561  1.00  0.00     0.029 A   
ATOM     9   C24 UNL     1       4.075   5.360  -0.513  1.00  0.00     0.034 A   
ATOM     10  C23 UNL     1       2.800   5.809  -0.148  1.00  0.00     0.120 A   
ATOM     11  C22 UNL     1       1.742   4.902   0.016  1.00  0.00     0.057 A   
ATOM     12  C1  UNL     1       5.665   3.515  -1.136  1.00  0.00     0.044 C   
BRANCH  10  13
ATOM     13  N5  UNL     1       2.568   7.244   0.070  1.00  0.00     0.092 N   
ATOM     14  O3  UNL     1       1.428   7.596   0.402  1.00  0.00    -0.138 OA  
ATOM     15  O4  UNL     1       3.527   8.013  -0.088  1.00  0.00    -0.138 OA  
ENDBRANCH  10  13
ENDBRANCH   1   6
BRANCH   3  16
ATOM     16  C7  UNL     1      -1.075  -0.476   0.161  1.00  0.00     0.117 C   
BRANCH  16  17
ATOM     17  N2  UNL     1      -2.194  -0.470   1.183  1.00  0.00     0.249 N   
ATOM     18  H7  UNL     1      -2.748   0.380   1.003  1.00  0.00     0.199 HD  
ATOM     19  H8  UNL     1      -2.814  -1.273   1.038  1.00  0.00     0.199 HD  
BRANCH  17  20
ATOM     20  C8  UNL     1      -1.783  -0.425   2.619  1.00  0.00     0.164 C   
BRANCH  20  21
ATOM     21  C9  UNL     1      -1.138  -1.702   3.079  1.00  0.00    -0.002 A   
ATOM     22  C10 UNL     1      -1.917  -2.866   3.283  1.00  0.00     0.012 A   
ATOM     23  C14 UNL     1       0.252  -1.756   3.285  1.00  0.00     0.045 A   
ATOM     24  C11 UNL     1      -1.323  -4.069   3.681  1.00  0.00     0.037 A   
ATOM     25  C13 UNL     1       0.806  -2.957   3.676  1.00  0.00     0.109 A   
ATOM     26  C12 UNL     1       0.042  -4.082   3.869  1.00  0.00     0.108 A   
ATOM     27  O1  UNL     1       2.126  -3.180   3.909  1.00  0.00    -0.316 OA  
ATOM     28  O2  UNL     1       0.783  -5.153   4.252  1.00  0.00    -0.316 OA  
ATOM     29  C15 UNL     1       2.101  -4.568   4.320  1.00  0.00     0.337 C   
ENDBRANCH  20  21
ENDBRANCH  17  20
ENDBRANCH  16  17
BRANCH  16  30
ATOM     30  C16 UNL     1      -1.661  -0.958  -1.194  1.00  0.00     0.043 C   
ATOM     31  C17 UNL     1      -0.555  -1.213  -2.236  1.00  0.00     0.010 C   
ATOM     32  C21 UNL     1      -2.743  -0.031  -1.785  1.00  0.00     0.010 C   
ATOM     33  C18 UNL     1      -1.126  -1.776  -3.536  1.00  0.00     0.001 C   
ATOM     34  C20 UNL     1      -3.308  -0.590  -3.091  1.00  0.00     0.001 C   
ATOM     35  C19 UNL     1      -2.210  -0.871  -4.111  1.00  0.00     0.000 C   
ENDBRANCH  16  30
ENDBRANCH   3  16
TORSDOF 7
