REMARK SMILES CC(C)(C)[C@H]([NH2+]Cc1ccc2c(c1)OCO2)c1cn(Cc2cn[nH]c2C2CC2)nn1
REMARK SMILES IDX 17 1 18 2 19 3 29 4 30 5 5 7 2 8 1 9 3 10 4 11 6 12 7 15
REMARK SMILES IDX 8 16 9 17 13 18 10 19 12 20 11 21 14 22 16 23 15 24 20 25
REMARK SMILES IDX 21 26 22 27 25 28 23 29 24 30 26 32 27 33 28 34
REMARK H PARENT 18 6 6 13 6 14 24 31
ROOT
ATOM     1   C14 UNL     1      -0.693   0.616   1.314  1.00  0.00     0.127 A   
ATOM     2   C15 UNL     1       0.380   1.312   0.804  1.00  0.00     0.046 A   
ATOM     3   N2  UNL     1       1.464   0.748   1.421  1.00  0.00    -0.208 N   
ATOM     4   N5  UNL     1       1.079  -0.231   2.265  1.00  0.00    -0.076 NA  
ATOM     5   N6  UNL     1      -0.237  -0.330   2.198  1.00  0.00    -0.132 NA  
ATOM     6   H20 UNL     1       0.476   2.106   0.076  1.00  0.00     0.083 HD  
ENDROOT
BRANCH   1   7
ATOM     7   C5  UNL     1      -2.158   0.675   1.003  1.00  0.00     0.120 C   
BRANCH   7   8
ATOM     8   C2  UNL     1      -2.983   1.605   1.959  1.00  0.00     0.010 C   
ATOM     9   C1  UNL     1      -4.456   1.676   1.491  1.00  0.00     0.017 C   
ATOM     10  C3  UNL     1      -2.958   1.132   3.426  1.00  0.00     0.017 C   
ATOM     11  C4  UNL     1      -2.425   3.046   1.906  1.00  0.00     0.017 C   
ENDBRANCH   7   8
BRANCH   7  12
ATOM     12  N1  UNL     1      -2.703  -0.743   1.034  1.00  0.00     0.250 N   
ATOM     13  H11 UNL     1      -2.014  -1.293   1.573  1.00  0.00     0.199 HD  
ATOM     14  H12 UNL     1      -3.568  -0.802   1.575  1.00  0.00     0.199 HD  
BRANCH  12  15
ATOM     15  C6  UNL     1      -2.901  -1.405  -0.284  1.00  0.00     0.164 C   
BRANCH  15  16
ATOM     16  C7  UNL     1      -1.635  -1.595  -1.071  1.00  0.00    -0.002 A   
ATOM     17  C8  UNL     1      -0.679  -2.561  -0.672  1.00  0.00     0.012 A   
ATOM     18  C12 UNL     1      -1.379  -0.799  -2.200  1.00  0.00     0.045 A   
ATOM     19  C9  UNL     1       0.511  -2.735  -1.388  1.00  0.00     0.037 A   
ATOM     20  C11 UNL     1      -0.194  -0.992  -2.879  1.00  0.00     0.109 A   
ATOM     21  C10 UNL     1       0.724  -1.935  -2.488  1.00  0.00     0.108 A   
ATOM     22  O1  UNL     1       0.202  -0.305  -3.982  1.00  0.00    -0.316 OA  
ATOM     23  O2  UNL     1       1.813  -1.968  -3.300  1.00  0.00    -0.316 OA  
ATOM     24  C13 UNL     1       1.476  -0.935  -4.254  1.00  0.00     0.337 C   
ENDBRANCH  15  16
ENDBRANCH  12  15
ENDBRANCH   7  12
ENDBRANCH   1   7
BRANCH   3  25
ATOM     25  C16 UNL     1       2.867   1.102   1.274  1.00  0.00     0.172 C   
BRANCH  25  26
ATOM     26  C17 UNL     1       3.404   0.577  -0.007  1.00  0.00     0.010 A   
ATOM     27  C18 UNL     1       3.582   1.287  -1.218  1.00  0.00     0.138 A   
ATOM     28  C19 UNL     1       3.845  -0.693  -0.313  1.00  0.00     0.034 A   
ATOM     29  N3  UNL     1       4.054   0.523  -2.203  1.00  0.00    -0.192 NA  
ATOM     30  N4  UNL     1       4.213  -0.681  -1.625  1.00  0.00    -0.242 N   
ATOM     31  H24 UNL     1       4.564  -1.451  -2.186  1.00  0.00     0.175 HD  
BRANCH  28  32
ATOM     32  C20 UNL     1       3.884  -1.919   0.628  1.00  0.00     0.036 C   
ATOM     33  C21 UNL     1       5.101  -2.805   0.631  1.00  0.00     0.010 C   
ATOM     34  C22 UNL     1       4.831  -1.902   1.799  1.00  0.00     0.010 C   
ENDBRANCH  28  32
ENDBRANCH  25  26
ENDBRANCH   3  25
TORSDOF 8
