REMARK SMILES CC(C)(C)[C@H]([NH2+]Cc1ccc2c(c1)OCO2)c1cn(Cc2ccc(CN)cc2)nn1
REMARK SMILES IDX 17 1 18 2 19 3 29 4 30 5 5 7 2 8 1 9 3 10 4 11 6 12 7 15
REMARK SMILES IDX 8 16 9 17 13 18 10 19 12 20 11 21 14 22 16 23 15 24 20 25
REMARK SMILES IDX 21 26 22 27 28 28 23 29 27 30 24 31 25 32 26 33
REMARK H PARENT 18 6 6 13 6 14 26 34 26 35
ROOT
ATOM     1   C14 UNL     1      -0.156   1.229  -2.058  1.00  0.00     0.127 A   
ATOM     2   C15 UNL     1      -0.066   2.126  -1.017  1.00  0.00     0.046 A   
ATOM     3   N2  UNL     1      -1.171   2.919  -1.167  1.00  0.00    -0.208 N   
ATOM     4   N4  UNL     1      -1.868   2.566  -2.266  1.00  0.00    -0.076 NA  
ATOM     5   N5  UNL     1      -1.251   1.537  -2.824  1.00  0.00    -0.132 NA  
ATOM     6   H20 UNL     1       0.610   2.226  -0.178  1.00  0.00     0.083 HD  
ENDROOT
BRANCH   1   7
ATOM     7   C5  UNL     1       0.639  -0.006  -2.348  1.00  0.00     0.120 C   
BRANCH   7   8
ATOM     8   C2  UNL     1       1.789   0.201  -3.397  1.00  0.00     0.010 C   
ATOM     9   C1  UNL     1       2.754   1.305  -2.908  1.00  0.00     0.017 C   
ATOM     10  C3  UNL     1       1.266   0.598  -4.791  1.00  0.00     0.017 C   
ATOM     11  C4  UNL     1       2.623  -1.093  -3.545  1.00  0.00     0.017 C   
ENDBRANCH   7   8
BRANCH   7  12
ATOM     12  N1  UNL     1      -0.294  -1.116  -2.796  1.00  0.00     0.250 N   
ATOM     13  H11 UNL     1      -0.792  -0.764  -3.624  1.00  0.00     0.199 HD  
ATOM     14  H12 UNL     1       0.236  -1.942  -3.079  1.00  0.00     0.199 HD  
BRANCH  12  15
ATOM     15  C6  UNL     1      -1.344  -1.544  -1.818  1.00  0.00     0.164 C   
BRANCH  15  16
ATOM     16  C7  UNL     1      -0.787  -2.082  -0.530  1.00  0.00    -0.002 A   
ATOM     17  C8  UNL     1      -0.939  -1.349   0.672  1.00  0.00     0.012 A   
ATOM     18  C12 UNL     1      -0.097  -3.306  -0.510  1.00  0.00     0.045 A   
ATOM     19  C9  UNL     1      -0.413  -1.824   1.877  1.00  0.00     0.037 A   
ATOM     20  C11 UNL     1       0.409  -3.745   0.694  1.00  0.00     0.109 A   
ATOM     21  C10 UNL     1       0.256  -3.027   1.854  1.00  0.00     0.108 A   
ATOM     22  O1  UNL     1       1.100  -4.899   0.884  1.00  0.00    -0.316 OA  
ATOM     23  O2  UNL     1       0.824  -3.642   2.921  1.00  0.00    -0.316 OA  
ATOM     24  C13 UNL     1       1.343  -4.841   2.308  1.00  0.00     0.337 C   
ENDBRANCH  15  16
ENDBRANCH  12  15
ENDBRANCH   7  12
ENDBRANCH   1   7
BRANCH   3  25
ATOM     25  C16 UNL     1      -1.682   3.924  -0.248  1.00  0.00     0.169 C   
BRANCH  25  26
ATOM     26  C17 UNL     1      -2.104   3.270   1.046  1.00  0.00    -0.029 A   
ATOM     27  C18 UNL     1      -1.259   3.296   2.164  1.00  0.00     0.006 A   
ATOM     28  C23 UNL     1      -3.313   2.563   1.124  1.00  0.00     0.006 A   
ATOM     29  C19 UNL     1      -1.610   2.613   3.330  1.00  0.00     0.005 A   
ATOM     30  C22 UNL     1      -3.663   1.884   2.294  1.00  0.00     0.005 A   
ATOM     31  C20 UNL     1      -2.814   1.902   3.408  1.00  0.00    -0.034 A   
BRANCH  31  32
ATOM     32  C21 UNL     1      -3.163   1.137   4.658  1.00  0.00     0.113 C   
BRANCH  32  33
ATOM     33  N3  UNL     1      -2.663  -0.230   4.579  1.00  0.00    -0.327 NA  
ATOM     34  H27 UNL     1      -2.850  -0.697   5.465  1.00  0.00     0.119 HD  
ATOM     35  H28 UNL     1      -3.202  -0.737   3.880  1.00  0.00     0.119 HD  
ENDBRANCH  32  33
ENDBRANCH  31  32
ENDBRANCH  25  26
ENDBRANCH   3  25
TORSDOF 9
