REMARK SMILES CC(C)[C@H]([NH2+]Cc1ccc2c(c1)OCO2)c1cn(CCc2ccc(N(C)C)cc2)nn1
REMARK SMILES IDX 16 1 17 2 18 3 30 4 31 5 4 7 2 8 1 9 3 10 5 11 6 14 7 15
REMARK SMILES IDX 8 16 12 17 9 18 11 19 10 20 13 21 15 22 14 23 19 24 20 25
REMARK SMILES IDX 21 26 22 27 29 28 23 29 28 30 24 31 25 32 26 33 27 34
REMARK H PARENT 17 6 5 12 5 13
ROOT
ATOM     1   C13 UNL     1      -0.219   1.331   2.456  1.00  0.00     0.127 A   
ATOM     2   C14 UNL     1       1.061   1.429   2.952  1.00  0.00     0.045 A   
ATOM     3   N2  UNL     1       1.179   0.333   3.764  1.00  0.00    -0.212 N   
ATOM     4   N4  UNL     1       0.002  -0.308   3.882  1.00  0.00    -0.076 NA  
ATOM     5   N5  UNL     1      -0.858   0.278   3.062  1.00  0.00    -0.132 NA  
ATOM     6   H18 UNL     1       1.902   2.065   2.713  1.00  0.00     0.083 HD  
ENDROOT
BRANCH   1   7
ATOM     7   C4  UNL     1      -0.879   2.058   1.329  1.00  0.00     0.117 C   
BRANCH   7   8
ATOM     8   C2  UNL     1      -1.994   3.037   1.776  1.00  0.00     0.037 C   
ATOM     9   C1  UNL     1      -1.437   4.133   2.694  1.00  0.00     0.014 C   
ATOM     10  C3  UNL     1      -3.203   2.373   2.444  1.00  0.00     0.014 C   
ENDBRANCH   7   8
BRANCH   7  11
ATOM     11  N1  UNL     1      -1.386   1.018   0.367  1.00  0.00     0.249 N   
ATOM     12  H9  UNL     1      -0.575   0.440   0.095  1.00  0.00     0.199 HD  
ATOM     13  H10 UNL     1      -1.982   0.362   0.892  1.00  0.00     0.199 HD  
BRANCH  11  14
ATOM     14  C5  UNL     1      -2.050   1.462  -0.878  1.00  0.00     0.164 C   
BRANCH  14  15
ATOM     15  C6  UNL     1      -2.446   0.288  -1.730  1.00  0.00    -0.002 A   
ATOM     16  C7  UNL     1      -3.579  -0.491  -1.391  1.00  0.00     0.012 A   
ATOM     17  C11 UNL     1      -1.678  -0.063  -2.851  1.00  0.00     0.045 A   
ATOM     18  C8  UNL     1      -3.943  -1.602  -2.159  1.00  0.00     0.037 A   
ATOM     19  C10 UNL     1      -2.065  -1.163  -3.589  1.00  0.00     0.109 A   
ATOM     20  C9  UNL     1      -3.165  -1.911  -3.252  1.00  0.00     0.108 A   
ATOM     21  O1  UNL     1      -1.432  -1.637  -4.694  1.00  0.00    -0.316 OA  
ATOM     22  O2  UNL     1      -3.367  -2.949  -4.106  1.00  0.00    -0.316 OA  
ATOM     23  C12 UNL     1      -2.286  -2.752  -5.040  1.00  0.00     0.337 C   
ENDBRANCH  14  15
ENDBRANCH  11  14
ENDBRANCH   7  11
ENDBRANCH   1   7
BRANCH   3  24
ATOM     24  C15 UNL     1       2.411  -0.295   4.199  1.00  0.00     0.139 C   
BRANCH  24  25
ATOM     25  C16 UNL     1       2.784  -1.524   3.352  1.00  0.00     0.057 C   
BRANCH  25  26
ATOM     26  C17 UNL     1       2.633  -1.285   1.864  1.00  0.00    -0.046 A   
ATOM     27  C18 UNL     1       1.568  -1.865   1.167  1.00  0.00     0.006 A   
ATOM     28  C24 UNL     1       3.472  -0.402   1.183  1.00  0.00     0.006 A   
ATOM     29  C19 UNL     1       1.321  -1.527  -0.167  1.00  0.00     0.024 A   
ATOM     30  C23 UNL     1       3.209  -0.058  -0.150  1.00  0.00     0.024 A   
ATOM     31  C20 UNL     1       2.124  -0.601  -0.855  1.00  0.00     0.028 A   
BRANCH  31  32
ATOM     32  N3  UNL     1       1.788  -0.233  -2.175  1.00  0.00    -0.337 N   
ATOM     33  C21 UNL     1       1.713  -1.398  -3.082  1.00  0.00     0.129 C   
ATOM     34  C22 UNL     1       2.524   0.891  -2.771  1.00  0.00     0.129 C   
ENDBRANCH  31  32
ENDBRANCH  25  26
ENDBRANCH  24  25
ENDBRANCH   3  24
TORSDOF 9
