REMARK SMILES CC(C)C[C@H]([NH2+]Cc1ccc2c(c1)OCO2)c1cn(Cc2cnoc2)nn1
REMARK SMILES IDX 5 1 4 2 2 3 1 4 3 5 6 6 7 9 8 10 9 11 13 12 10 13 12 14
REMARK SMILES IDX 11 15 14 16 16 17 15 18 17 19 18 20 27 21 19 22 26 23 20 25
REMARK SMILES IDX 21 26 22 27 25 28 23 29 24 30
REMARK H PARENT 6 7 6 8 18 24
ROOT
ATOM     1   C5  UNL     1      -1.638  -0.711  -0.647  1.00  0.00     0.114 C   
ENDROOT
BRANCH   1   2
ATOM     2   C4  UNL     1      -3.160  -0.467  -0.655  1.00  0.00     0.064 C   
BRANCH   2   3
ATOM     3   C2  UNL     1      -3.636   0.682  -1.571  1.00  0.00    -0.012 C   
ATOM     4   C1  UNL     1      -5.152   0.854  -1.435  1.00  0.00     0.007 C   
ATOM     5   C3  UNL     1      -3.274   0.447  -3.038  1.00  0.00     0.007 C   
ENDBRANCH   2   3
ENDBRANCH   1   2
BRANCH   1   6
ATOM     6   N1  UNL     1      -1.378  -1.914   0.241  1.00  0.00     0.249 N   
ATOM     7   H11 UNL     1      -2.255  -2.394   0.466  1.00  0.00     0.199 HD  
ATOM     8   H12 UNL     1      -1.038  -1.537   1.142  1.00  0.00     0.199 HD  
BRANCH   6   9
ATOM     9   C6  UNL     1      -0.392  -2.906  -0.264  1.00  0.00     0.164 C   
BRANCH   9  10
ATOM     10  C7  UNL     1       0.995  -2.356  -0.441  1.00  0.00    -0.002 A   
ATOM     11  C8  UNL     1       1.502  -2.093  -1.736  1.00  0.00     0.012 A   
ATOM     12  C12 UNL     1       1.798  -2.090   0.682  1.00  0.00     0.045 A   
ATOM     13  C9  UNL     1       2.789  -1.576  -1.914  1.00  0.00     0.037 A   
ATOM     14  C11 UNL     1       3.068  -1.593   0.470  1.00  0.00     0.109 A   
ATOM     15  C10 UNL     1       3.549  -1.341  -0.790  1.00  0.00     0.108 A   
ATOM     16  O1  UNL     1       3.978  -1.315   1.439  1.00  0.00    -0.316 OA  
ATOM     17  O2  UNL     1       4.822  -0.869  -0.775  1.00  0.00    -0.316 OA  
ATOM     18  C13 UNL     1       5.117  -0.922   0.639  1.00  0.00     0.337 C   
ENDBRANCH   9  10
ENDBRANCH   6   9
ENDBRANCH   1   6
BRANCH   1  19
ATOM     19  C14 UNL     1      -0.874   0.457  -0.117  1.00  0.00     0.127 A   
ATOM     20  C15 UNL     1      -0.128   1.429  -0.746  1.00  0.00     0.046 A   
ATOM     21  N5  UNL     1      -0.810   0.646   1.239  1.00  0.00    -0.132 NA  
ATOM     22  N2  UNL     1       0.353   2.191   0.283  1.00  0.00    -0.208 N   
ATOM     23  N4  UNL     1      -0.068   1.715   1.471  1.00  0.00    -0.076 NA  
ATOM     24  H20 UNL     1       0.101   1.639  -1.782  1.00  0.00     0.083 HD  
BRANCH  22  25
ATOM     25  C16 UNL     1       1.169   3.392   0.213  1.00  0.00     0.173 C   
BRANCH  25  26
ATOM     26  C17 UNL     1       2.599   3.068   0.411  1.00  0.00     0.018 A   
ATOM     27  C18 UNL     1       3.267   2.785   1.625  1.00  0.00     0.149 A   
ATOM     28  C19 UNL     1       3.603   2.985  -0.526  1.00  0.00     0.171 A   
ATOM     29  N3  UNL     1       4.567   2.552   1.442  1.00  0.00    -0.137 NA  
ATOM     30  O3  UNL     1       4.775   2.676   0.080  1.00  0.00    -0.222 OA  
ENDBRANCH  25  26
ENDBRANCH  22  25
ENDBRANCH   1  19
TORSDOF 8
