REMARK SMILES CC(C)[C@H]([NH2+]Cc1ccc2c(c1)OCO2)c1cn(Cc2ncoc2C2CCC2)nn1
REMARK SMILES IDX 16 1 17 2 18 3 29 4 30 5 4 7 2 8 1 9 3 10 5 11 6 14 7 15
REMARK SMILES IDX 8 16 12 17 9 18 11 19 10 20 13 21 15 22 14 23 19 24 20 25
REMARK SMILES IDX 21 26 24 27 22 28 23 29 25 30 26 31 28 32 27 33
REMARK H PARENT 17 6 5 12 5 13
ROOT
ATOM     1   C13 UNL     1      -0.624  -0.613   1.450  1.00  0.00     0.127 A   
ATOM     2   C14 UNL     1      -0.358  -1.613   0.545  1.00  0.00     0.046 A   
ATOM     3   N2  UNL     1      -1.498  -1.687  -0.210  1.00  0.00    -0.206 N   
ATOM     4   N4  UNL     1      -2.421  -0.807   0.227  1.00  0.00    -0.076 NA  
ATOM     5   N5  UNL     1      -1.893  -0.133   1.234  1.00  0.00    -0.132 NA  
ATOM     6   H18 UNL     1       0.509  -2.226   0.338  1.00  0.00     0.083 HD  
ENDROOT
BRANCH   1   7
ATOM     7   C4  UNL     1       0.227   0.038   2.494  1.00  0.00     0.117 C   
BRANCH   7   8
ATOM     8   C2  UNL     1       0.086  -0.636   3.884  1.00  0.00     0.037 C   
ATOM     9   C1  UNL     1       1.135  -0.108   4.869  1.00  0.00     0.014 C   
ATOM     10  C3  UNL     1      -1.312  -0.523   4.505  1.00  0.00     0.014 C   
ENDBRANCH   7   8
BRANCH   7  11
ATOM     11  N1  UNL     1      -0.128   1.508   2.570  1.00  0.00     0.249 N   
ATOM     12  H9  UNL     1      -1.050   1.595   2.113  1.00  0.00     0.199 HD  
ATOM     13  H10 UNL     1      -0.279   1.804   3.537  1.00  0.00     0.199 HD  
BRANCH  11  14
ATOM     14  C5  UNL     1       0.813   2.457   1.912  1.00  0.00     0.164 C   
BRANCH  14  15
ATOM     15  C6  UNL     1       1.111   2.156   0.469  1.00  0.00    -0.002 A   
ATOM     16  C7  UNL     1       0.096   2.224  -0.516  1.00  0.00     0.012 A   
ATOM     17  C11 UNL     1       2.415   1.792   0.089  1.00  0.00     0.045 A   
ATOM     18  C8  UNL     1       0.372   1.922  -1.855  1.00  0.00     0.037 A   
ATOM     19  C10 UNL     1       2.653   1.506  -1.239  1.00  0.00     0.109 A   
ATOM     20  C9  UNL     1       1.661   1.568  -2.185  1.00  0.00     0.108 A   
ATOM     21  O1  UNL     1       3.851   1.138  -1.764  1.00  0.00    -0.316 OA  
ATOM     22  O2  UNL     1       2.110   1.250  -3.428  1.00  0.00    -0.316 OA  
ATOM     23  C12 UNL     1       3.507   1.001  -3.160  1.00  0.00     0.337 C   
ENDBRANCH  14  15
ENDBRANCH  11  14
ENDBRANCH   7  11
ENDBRANCH   1   7
BRANCH   3  24
ATOM     24  C15 UNL     1      -1.775  -2.555  -1.340  1.00  0.00     0.192 C   
BRANCH  24  25
ATOM     25  C16 UNL     1      -1.232  -1.952  -2.580  1.00  0.00     0.089 A   
ATOM     26  N3  UNL     1       0.105  -2.090  -2.903  1.00  0.00    -0.232 NA  
ATOM     27  C18 UNL     1      -1.867  -1.215  -3.563  1.00  0.00     0.087 A   
ATOM     28  C17 UNL     1       0.216  -1.450  -4.046  1.00  0.00     0.247 A   
ATOM     29  O3  UNL     1      -0.933  -0.890  -4.505  1.00  0.00    -0.301 OA  
BRANCH  27  30
ATOM     30  C19 UNL     1      -3.365  -0.822  -3.623  1.00  0.00     0.045 C   
ATOM     31  C20 UNL     1      -3.787  -0.003  -4.869  1.00  0.00     0.010 C   
ATOM     32  C22 UNL     1      -3.747   0.424  -2.785  1.00  0.00     0.010 C   
ATOM     33  C21 UNL     1      -4.702   0.811  -3.932  1.00  0.00     0.001 C   
ENDBRANCH  27  30
ENDBRANCH  24  25
ENDBRANCH   3  24
TORSDOF 8
