REMARK SMILES Cc1ccncc1CCn1cc([C@@H]([NH2+]Cc2ccc3c(c2)OCO3)C(C)(C)C)nn1
REMARK SMILES IDX 10 1 11 2 12 3 29 4 30 5 9 7 8 8 7 9 2 10 3 11 4 12 6 13
REMARK SMILES IDX 5 14 1 15 13 16 14 17 15 20 16 21 17 22 21 23 18 24 20 25
REMARK SMILES IDX 19 26 22 27 24 28 23 29 25 30 26 31 27 32 28 33
REMARK H PARENT 11 6 14 18 14 19
ROOT
ATOM     1   N2  UNL     1      -1.821   2.353   2.752  1.00  0.00    -0.212 N   
ATOM     2   C9  UNL     1      -1.448   1.032   2.753  1.00  0.00     0.045 A   
ATOM     3   C10 UNL     1      -2.124   0.492   1.678  1.00  0.00     0.127 A   
ATOM     4   N4  UNL     1      -2.977   1.451   1.176  1.00  0.00    -0.132 NA  
ATOM     5   N5  UNL     1      -2.776   2.581   1.835  1.00  0.00    -0.076 NA  
ATOM     6   H11 UNL     1      -0.662   0.669   3.404  1.00  0.00     0.083 HD  
ENDROOT
BRANCH   1   7
ATOM     7   C8  UNL     1      -1.071   3.455   3.327  1.00  0.00     0.139 C   
BRANCH   7   8
ATOM     8   C7  UNL     1      -0.111   4.116   2.312  1.00  0.00     0.059 C   
BRANCH   8   9
ATOM     9   C6  UNL     1       0.770   3.112   1.594  1.00  0.00    -0.025 A   
ATOM     10  C2  UNL     1       1.975   2.613   2.112  1.00  0.00    -0.045 A   
ATOM     11  C3  UNL     1       2.632   1.597   1.403  1.00  0.00     0.024 A   
ATOM     12  C4  UNL     1       2.042   1.069   0.264  1.00  0.00     0.111 A   
ATOM     13  C5  UNL     1       0.297   2.548   0.402  1.00  0.00     0.115 A   
ATOM     14  N1  UNL     1       0.848   1.478  -0.224  1.00  0.00    -0.264 NA  
ATOM     15  C1  UNL     1       2.625   3.172   3.346  1.00  0.00     0.045 C   
ENDBRANCH   8   9
ENDBRANCH   7   8
ENDBRANCH   1   7
BRANCH   3  16
ATOM     16  C11 UNL     1      -1.981  -0.804   0.928  1.00  0.00     0.120 C   
BRANCH  16  17
ATOM     17  N3  UNL     1      -1.206  -0.560  -0.352  1.00  0.00     0.250 N   
ATOM     18  H13 UNL     1      -0.640  -1.365  -0.621  1.00  0.00     0.199 HD  
ATOM     19  H14 UNL     1      -0.506   0.198  -0.203  1.00  0.00     0.199 HD  
BRANCH  17  20
ATOM     20  C12 UNL     1      -2.029  -0.155  -1.527  1.00  0.00     0.164 C   
BRANCH  20  21
ATOM     21  C13 UNL     1      -1.175   0.018  -2.753  1.00  0.00    -0.002 A   
ATOM     22  C14 UNL     1      -0.928   1.312  -3.273  1.00  0.00     0.012 A   
ATOM     23  C18 UNL     1      -0.581  -1.097  -3.369  1.00  0.00     0.045 A   
ATOM     24  C15 UNL     1      -0.105   1.495  -4.389  1.00  0.00     0.037 A   
ATOM     25  C17 UNL     1       0.229  -0.881  -4.463  1.00  0.00     0.109 A   
ATOM     26  C16 UNL     1       0.462   0.379  -4.959  1.00  0.00     0.108 A   
ATOM     27  O1  UNL     1       0.890  -1.847  -5.156  1.00  0.00    -0.316 OA  
ATOM     28  O2  UNL     1       1.293   0.365  -6.034  1.00  0.00    -0.316 OA  
ATOM     29  C19 UNL     1       1.518  -1.053  -6.192  1.00  0.00     0.337 C   
ENDBRANCH  20  21
ENDBRANCH  17  20
ENDBRANCH  16  17
BRANCH  16  30
ATOM     30  C20 UNL     1      -1.379  -2.036   1.695  1.00  0.00     0.010 C   
ATOM     31  C21 UNL     1       0.141  -1.929   1.937  1.00  0.00     0.017 C   
ATOM     32  C22 UNL     1      -1.632  -3.324   0.865  1.00  0.00     0.017 C   
ATOM     33  C23 UNL     1      -2.090  -2.247   3.052  1.00  0.00     0.017 C   
ENDBRANCH  16  30
ENDBRANCH   3  16
TORSDOF 8
