REMARK SMILES CC(C)(C)[C@H]([NH2+]Cc1ccc2c(c1)OCO2)c1cn(CCc2ccc(F)nc2)nn1
REMARK SMILES IDX 17 1 18 2 19 3 29 4 30 5 5 7 2 8 1 9 3 10 4 11 6 12 7 15
REMARK SMILES IDX 8 16 9 17 13 18 10 19 12 20 11 21 14 22 16 23 15 24 20 25
REMARK SMILES IDX 21 26 22 27 23 28 28 29 24 30 27 31 25 32 26 33
REMARK H PARENT 18 6 6 13 6 14
ROOT
ATOM     1   C14 UNL     1      -1.532   0.908  -2.043  1.00  0.00     0.127 A   
ATOM     2   C15 UNL     1      -2.870   0.973  -1.712  1.00  0.00     0.045 A   
ATOM     3   N2  UNL     1      -3.158   2.315  -1.727  1.00  0.00    -0.212 N   
ATOM     4   N4  UNL     1      -2.108   3.021  -2.175  1.00  0.00    -0.076 NA  
ATOM     5   N5  UNL     1      -1.109   2.174  -2.374  1.00  0.00    -0.132 NA  
ATOM     6   H20 UNL     1      -3.592   0.250  -1.362  1.00  0.00     0.083 HD  
ENDROOT
BRANCH   1   7
ATOM     7   C5  UNL     1      -0.505  -0.191  -1.965  1.00  0.00     0.120 C   
BRANCH   7   8
ATOM     8   C2  UNL     1      -1.012  -1.675  -2.038  1.00  0.00     0.010 C   
ATOM     9   C1  UNL     1      -1.721  -2.143  -0.751  1.00  0.00     0.017 C   
ATOM     10  C3  UNL     1      -1.962  -1.872  -3.242  1.00  0.00     0.017 C   
ATOM     11  C4  UNL     1       0.193  -2.622  -2.278  1.00  0.00     0.017 C   
ENDBRANCH   7   8
BRANCH   7  12
ATOM     12  N1  UNL     1       0.360   0.005  -0.733  1.00  0.00     0.250 N   
ATOM     13  H11 UNL     1      -0.226   0.292   0.074  1.00  0.00     0.199 HD  
ATOM     14  H12 UNL     1       0.802  -0.866  -0.435  1.00  0.00     0.199 HD  
BRANCH  12  15
ATOM     15  C6  UNL     1       1.432   1.036  -0.863  1.00  0.00     0.164 C   
BRANCH  15  16
ATOM     16  C7  UNL     1       2.473   0.861   0.210  1.00  0.00    -0.002 A   
ATOM     17  C8  UNL     1       2.370   1.564   1.432  1.00  0.00     0.012 A   
ATOM     18  C12 UNL     1       3.534  -0.043   0.020  1.00  0.00     0.045 A   
ATOM     19  C9  UNL     1       3.317   1.385   2.448  1.00  0.00     0.037 A   
ATOM     20  C11 UNL     1       4.448  -0.198   1.042  1.00  0.00     0.109 A   
ATOM     21  C10 UNL     1       4.343   0.497   2.221  1.00  0.00     0.108 A   
ATOM     22  O1  UNL     1       5.525  -1.026   1.019  1.00  0.00    -0.316 OA  
ATOM     23  O2  UNL     1       5.346   0.201   3.088  1.00  0.00    -0.316 OA  
ATOM     24  C13 UNL     1       6.105  -0.754   2.316  1.00  0.00     0.337 C   
ENDBRANCH  15  16
ENDBRANCH  12  15
ENDBRANCH   7  12
ENDBRANCH   1   7
BRANCH   3  25
ATOM     25  C16 UNL     1      -4.242   2.973  -1.018  1.00  0.00     0.139 C   
BRANCH  25  26
ATOM     26  C17 UNL     1      -3.822   3.486   0.377  1.00  0.00     0.058 C   
BRANCH  26  27
ATOM     27  C18 UNL     1      -3.145   2.419   1.207  1.00  0.00    -0.028 A   
ATOM     28  C19 UNL     1      -3.865   1.503   1.974  1.00  0.00     0.010 A   
ATOM     29  C22 UNL     1      -1.765   2.231   1.105  1.00  0.00     0.118 A   
ATOM     30  C20 UNL     1      -3.193   0.438   2.571  1.00  0.00     0.061 A   
ATOM     31  N3  UNL     1      -1.101   1.149   1.576  1.00  0.00    -0.228 NA  
ATOM     32  C21 UNL     1      -1.834   0.302   2.338  1.00  0.00     0.212 A   
ATOM     33  F1  UNL     1      -1.200  -0.774   2.822  1.00  0.00    -0.185 F   
ENDBRANCH  26  27
ENDBRANCH  25  26
ENDBRANCH   3  25
TORSDOF 8
