REMARK SMILES CC(C)(C)[C@H]([NH2+]Cc1ccc2c(c1)OCO2)c1cn(Cc2ccncc2F)nn1
REMARK SMILES IDX 17 1 18 2 19 3 28 4 29 5 5 7 2 8 1 9 3 10 4 11 6 12 7 15
REMARK SMILES IDX 8 16 9 17 13 18 10 19 12 20 11 21 14 22 16 23 15 24 20 25
REMARK SMILES IDX 21 26 22 27 26 28 23 29 25 30 24 31 27 32
REMARK H PARENT 18 6 6 13 6 14
ROOT
ATOM     1   C14 UNL     1       0.291   2.113   1.555  1.00  0.00     0.127 A   
ATOM     2   C15 UNL     1       0.809   2.237   0.285  1.00  0.00     0.046 A   
ATOM     3   N2  UNL     1       2.156   2.355   0.487  1.00  0.00    -0.208 N   
ATOM     4   N4  UNL     1       2.453   2.299   1.800  1.00  0.00    -0.076 NA  
ATOM     5   N5  UNL     1       1.319   2.157   2.464  1.00  0.00    -0.132 NA  
ATOM     6   H20 UNL     1       0.368   2.245  -0.703  1.00  0.00     0.083 HD  
ENDROOT
BRANCH   1   7
ATOM     7   C5  UNL     1      -1.107   1.887   2.045  1.00  0.00     0.120 C   
BRANCH   7   8
ATOM     8   C2  UNL     1      -1.913   3.203   2.327  1.00  0.00     0.010 C   
ATOM     9   C1  UNL     1      -1.277   4.066   3.434  1.00  0.00     0.017 C   
ATOM     10  C3  UNL     1      -3.365   2.863   2.740  1.00  0.00     0.017 C   
ATOM     11  C4  UNL     1      -2.004   4.056   1.041  1.00  0.00     0.017 C   
ENDBRANCH   7   8
BRANCH   7  12
ATOM     12  N1  UNL     1      -1.034   1.032   3.299  1.00  0.00     0.250 N   
ATOM     13  H11 UNL     1      -1.641   1.392   4.039  1.00  0.00     0.199 HD  
ATOM     14  H12 UNL     1      -0.073   1.150   3.660  1.00  0.00     0.199 HD  
BRANCH  12  15
ATOM     15  C6  UNL     1      -1.287  -0.424   3.122  1.00  0.00     0.164 C   
BRANCH  15  16
ATOM     16  C7  UNL     1      -0.245  -1.129   2.301  1.00  0.00    -0.002 A   
ATOM     17  C8  UNL     1       1.052  -1.348   2.827  1.00  0.00     0.012 A   
ATOM     18  C12 UNL     1      -0.543  -1.567   0.999  1.00  0.00     0.045 A   
ATOM     19  C9  UNL     1       2.035  -1.998   2.073  1.00  0.00     0.037 A   
ATOM     20  C11 UNL     1       0.449  -2.207   0.285  1.00  0.00     0.109 A   
ATOM     21  C10 UNL     1       1.700  -2.420   0.807  1.00  0.00     0.108 A   
ATOM     22  O1  UNL     1       0.321  -2.700  -0.975  1.00  0.00    -0.316 OA  
ATOM     23  O2  UNL     1       2.517  -3.082  -0.053  1.00  0.00    -0.316 OA  
ATOM     24  C13 UNL     1       1.621  -3.308  -1.163  1.00  0.00     0.337 C   
ENDBRANCH  15  16
ENDBRANCH  12  15
ENDBRANCH   7  12
ENDBRANCH   1   7
BRANCH   3  25
ATOM     25  C16 UNL     1       3.202   2.560  -0.500  1.00  0.00     0.172 C   
BRANCH  25  26
ATOM     26  C17 UNL     1       3.486   1.300  -1.266  1.00  0.00     0.010 A   
ATOM     27  C18 UNL     1       4.395   0.345  -0.795  1.00  0.00     0.028 A   
ATOM     28  C21 UNL     1       2.826   1.042  -2.466  1.00  0.00     0.146 A   
ATOM     29  C19 UNL     1       4.606  -0.802  -1.549  1.00  0.00     0.111 A   
ATOM     30  C20 UNL     1       3.102  -0.125  -3.156  1.00  0.00     0.150 A   
ATOM     31  N3  UNL     1       3.979  -1.058  -2.720  1.00  0.00    -0.262 NA  
ATOM     32  F1  UNL     1       1.919   1.909  -2.938  1.00  0.00    -0.205 F   
ENDBRANCH  25  26
ENDBRANCH   3  25
TORSDOF 7
