REMARK SMILES CC(C)(C)[C@H]([NH2+]Cc1ccc2c(c1)OCO2)c1cn(C[C@H](O)c2ccccn2)nn1
REMARK SMILES IDX 17 1 18 2 19 3 29 4 30 5 5 7 2 8 1 9 3 10 4 11 6 12 7 15
REMARK SMILES IDX 8 16 9 17 13 18 10 19 12 20 11 21 14 22 16 23 15 24 20 25
REMARK SMILES IDX 21 26 22 27 23 29 24 30 28 31 25 32 27 33 26 34
REMARK H PARENT 18 6 6 13 6 14 22 28
ROOT
ATOM     1   C14 UNL     1       0.567  -2.018   0.086  1.00  0.00     0.127 A   
ATOM     2   C15 UNL     1      -0.321  -2.881   0.686  1.00  0.00     0.046 A   
ATOM     3   N2  UNL     1      -0.234  -2.567   2.013  1.00  0.00    -0.209 N   
ATOM     4   N4  UNL     1       0.705  -1.627   2.228  1.00  0.00    -0.076 NA  
ATOM     5   N5  UNL     1       1.192  -1.270   1.052  1.00  0.00    -0.132 NA  
ATOM     6   H20 UNL     1      -1.041  -3.596   0.310  1.00  0.00     0.083 HD  
ENDROOT
BRANCH   1   7
ATOM     7   C5  UNL     1       0.786  -1.683  -1.356  1.00  0.00     0.120 C   
BRANCH   7   8
ATOM     8   C2  UNL     1       2.100  -2.271  -1.971  1.00  0.00     0.010 C   
ATOM     9   C1  UNL     1       2.125  -3.805  -1.789  1.00  0.00     0.017 C   
ATOM     10  C3  UNL     1       3.378  -1.687  -1.337  1.00  0.00     0.017 C   
ATOM     11  C4  UNL     1       2.147  -1.994  -3.491  1.00  0.00     0.017 C   
ENDBRANCH   7   8
BRANCH   7  12
ATOM     12  N1  UNL     1       0.760  -0.177  -1.480  1.00  0.00     0.250 N   
ATOM     13  H11 UNL     1       1.351   0.181  -0.713  1.00  0.00     0.199 HD  
ATOM     14  H12 UNL     1       1.180   0.162  -2.348  1.00  0.00     0.199 HD  
BRANCH  12  15
ATOM     15  C6  UNL     1      -0.589   0.439  -1.312  1.00  0.00     0.164 C   
BRANCH  15  16
ATOM     16  C7  UNL     1      -0.479   1.928  -1.152  1.00  0.00    -0.002 A   
ATOM     17  C8  UNL     1      -0.650   2.790  -2.260  1.00  0.00     0.012 A   
ATOM     18  C12 UNL     1      -0.166   2.470   0.108  1.00  0.00     0.045 A   
ATOM     19  C9  UNL     1      -0.524   4.176  -2.115  1.00  0.00     0.037 A   
ATOM     20  C11 UNL     1      -0.053   3.840   0.216  1.00  0.00     0.109 A   
ATOM     21  C10 UNL     1      -0.227   4.669  -0.864  1.00  0.00     0.108 A   
ATOM     22  O1  UNL     1       0.230   4.523   1.356  1.00  0.00    -0.316 OA  
ATOM     23  O2  UNL     1      -0.071   5.979  -0.542  1.00  0.00    -0.316 OA  
ATOM     24  C13 UNL     1       0.222   5.885   0.869  1.00  0.00     0.337 C   
ENDBRANCH  15  16
ENDBRANCH  12  15
ENDBRANCH   7  12
ENDBRANCH   1   7
BRANCH   3  25
ATOM     25  C16 UNL     1      -1.063  -3.039   3.102  1.00  0.00     0.172 C   
BRANCH  25  26
ATOM     26  C17 UNL     1      -2.451  -2.394   3.110  1.00  0.00     0.182 C   
BRANCH  26  27
ATOM     27  O3  UNL     1      -3.211  -2.888   1.991  1.00  0.00    -0.385 OA  
ATOM     28  H24 UNL     1      -3.675  -2.099   1.637  1.00  0.00     0.211 HD  
ENDBRANCH  26  27
BRANCH  26  29
ATOM     29  C18 UNL     1      -2.451  -0.873   3.106  1.00  0.00     0.071 A   
ATOM     30  C19 UNL     1      -1.957  -0.155   4.192  1.00  0.00     0.026 A   
ATOM     31  N3  UNL     1      -2.989  -0.268   2.006  1.00  0.00    -0.258 NA  
ATOM     32  C20 UNL     1      -2.019   1.235   4.158  1.00  0.00     0.004 A   
ATOM     33  C22 UNL     1      -3.059   1.084   2.023  1.00  0.00     0.111 A   
ATOM     34  C21 UNL     1      -2.585   1.869   3.059  1.00  0.00     0.020 A   
ENDBRANCH  26  29
ENDBRANCH  25  26
ENDBRANCH   3  25
TORSDOF 9
