REMARK SMILES CC(C)(C)[C@H]([NH2+]Cc1ccc2c(c1)OCO2)c1cn(C[C@@H](O)c2ccccn2)nn1
REMARK SMILES IDX 17 1 18 2 19 3 29 4 30 5 5 7 2 8 1 9 3 10 4 11 6 12 7 15
REMARK SMILES IDX 8 16 9 17 13 18 10 19 12 20 11 21 14 22 16 23 15 24 20 25
REMARK SMILES IDX 21 26 22 27 23 29 24 30 28 31 25 32 27 33 26 34
REMARK H PARENT 18 6 6 13 6 14 22 28
ROOT
ATOM     1   C14 UNL     1       1.033   0.145   0.704  1.00  0.00     0.127 A   
ATOM     2   C15 UNL     1      -0.166  -0.490   0.935  1.00  0.00     0.046 A   
ATOM     3   N2  UNL     1      -0.987   0.507   1.379  1.00  0.00    -0.209 N   
ATOM     4   N4  UNL     1      -0.336   1.685   1.427  1.00  0.00    -0.076 NA  
ATOM     5   N5  UNL     1       0.905   1.476   1.018  1.00  0.00    -0.132 NA  
ATOM     6   H20 UNL     1      -0.515  -1.504   0.795  1.00  0.00     0.083 HD  
ENDROOT
BRANCH   1   7
ATOM     7   C5  UNL     1       2.317  -0.349   0.108  1.00  0.00     0.120 C   
BRANCH   7   8
ATOM     8   C2  UNL     1       3.375  -0.825   1.164  1.00  0.00     0.010 C   
ATOM     9   C1  UNL     1       4.601  -1.438   0.448  1.00  0.00     0.017 C   
ATOM     10  C3  UNL     1       3.861   0.317   2.079  1.00  0.00     0.017 C   
ATOM     11  C4  UNL     1       2.775  -1.937   2.055  1.00  0.00     0.017 C   
ENDBRANCH   7   8
BRANCH   7  12
ATOM     12  N1  UNL     1       2.893   0.756  -0.761  1.00  0.00     0.250 N   
ATOM     13  H11 UNL     1       3.907   0.830  -0.654  1.00  0.00     0.199 HD  
ATOM     14  H12 UNL     1       2.511   1.636  -0.378  1.00  0.00     0.199 HD  
BRANCH  12  15
ATOM     15  C6  UNL     1       2.563   0.699  -2.214  1.00  0.00     0.164 C   
BRANCH  15  16
ATOM     16  C7  UNL     1       1.099   0.853  -2.516  1.00  0.00    -0.002 A   
ATOM     17  C8  UNL     1       0.462   2.107  -2.354  1.00  0.00     0.012 A   
ATOM     18  C12 UNL     1       0.340  -0.258  -2.922  1.00  0.00     0.045 A   
ATOM     19  C9  UNL     1      -0.911   2.252  -2.578  1.00  0.00     0.037 A   
ATOM     20  C11 UNL     1      -1.011  -0.082  -3.131  1.00  0.00     0.109 A   
ATOM     21  C10 UNL     1      -1.621   1.136  -2.960  1.00  0.00     0.108 A   
ATOM     22  O1  UNL     1      -1.882  -1.051  -3.514  1.00  0.00    -0.316 OA  
ATOM     23  O2  UNL     1      -2.956   1.086  -3.201  1.00  0.00    -0.316 OA  
ATOM     24  C13 UNL     1      -3.119  -0.304  -3.560  1.00  0.00     0.337 C   
ENDBRANCH  15  16
ENDBRANCH  12  15
ENDBRANCH   7  12
ENDBRANCH   1   7
BRANCH   3  25
ATOM     25  C16 UNL     1      -2.384   0.418   1.758  1.00  0.00     0.172 C   
BRANCH  25  26
ATOM     26  C17 UNL     1      -3.287   0.415   0.528  1.00  0.00     0.182 C   
BRANCH  26  27
ATOM     27  O3  UNL     1      -3.197  -0.873  -0.112  1.00  0.00    -0.385 OA  
ATOM     28  H24 UNL     1      -4.052  -1.315   0.089  1.00  0.00     0.211 HD  
ENDBRANCH  26  27
BRANCH  26  29
ATOM     29  C18 UNL     1      -4.726   0.654   0.935  1.00  0.00     0.071 A   
ATOM     30  C19 UNL     1      -5.256   1.940   0.983  1.00  0.00     0.026 A   
ATOM     31  N3  UNL     1      -5.450  -0.456   1.246  1.00  0.00    -0.258 NA  
ATOM     32  C20 UNL     1      -6.586   2.097   1.362  1.00  0.00     0.004 A   
ATOM     33  C22 UNL     1      -6.738  -0.267   1.611  1.00  0.00     0.111 A   
ATOM     34  C21 UNL     1      -7.343   0.976   1.683  1.00  0.00     0.020 A   
ENDBRANCH  26  29
ENDBRANCH  25  26
ENDBRANCH   3  25
TORSDOF 9
