REMARK SMILES CCOc1nccc(-n2cc([C@H](CC(C)C)[NH2+]Cc3ccc4c(c3)OCO4)nn2)c1F
REMARK SMILES IDX 9 1 10 2 11 3 28 4 29 5 8 6 4 7 5 8 30 9 6 10 7 11 31 12
REMARK SMILES IDX 3 13 2 14 1 15 12 16 13 17 14 18 15 19 16 20 17 21 18 24
REMARK SMILES IDX 19 25 20 26 24 27 21 28 23 29 22 30 25 31 27 32 26 33
REMARK H PARENT 17 22 17 23
ROOT
ATOM     1   N2  UNL     1      -1.224  -1.294  -1.801  1.00  0.00    -0.177 N   
ATOM     2   C7  UNL     1      -0.340  -0.588  -1.010  1.00  0.00     0.135 A   
ATOM     3   C8  UNL     1       0.496   0.063  -1.888  1.00  0.00     0.127 A   
ATOM     4   N4  UNL     1       0.146  -0.269  -3.164  1.00  0.00    -0.131 NA  
ATOM     5   N5  UNL     1      -0.887  -1.093  -3.104  1.00  0.00    -0.071 NA  
ENDROOT
BRANCH   1   6
ATOM     6   C6  UNL     1      -2.311  -2.123  -1.444  1.00  0.00     0.099 A   
ATOM     7   C3  UNL     1      -3.719  -3.195   0.166  1.00  0.00     0.205 A   
ATOM     8   N1  UNL     1      -4.477  -3.776  -0.789  1.00  0.00    -0.230 NA  
ATOM     9   C22 UNL     1      -2.635  -2.370  -0.113  1.00  0.00     0.196 A   
ATOM     10  C4  UNL     1      -4.148  -3.526  -2.072  1.00  0.00     0.116 A   
ATOM     11  C5  UNL     1      -3.087  -2.717  -2.449  1.00  0.00     0.049 A   
ATOM     12  F1  UNL     1      -1.927  -1.843   0.897  1.00  0.00    -0.200 F   
BRANCH   7  13
ATOM     13  O1  UNL     1      -3.998  -3.419   1.500  1.00  0.00    -0.327 OA  
BRANCH  13  14
ATOM     14  C2  UNL     1      -5.144  -4.235   1.755  1.00  0.00     0.166 C   
ATOM     15  C1  UNL     1      -4.769  -5.707   1.770  1.00  0.00     0.035 C   
ENDBRANCH  13  14
ENDBRANCH   7  13
ENDBRANCH   1   6
BRANCH   3  16
ATOM     16  C9  UNL     1       1.659   0.968  -1.650  1.00  0.00     0.114 C   
BRANCH  16  17
ATOM     17  C10 UNL     1       1.287   2.457  -1.797  1.00  0.00     0.064 C   
BRANCH  17  18
ATOM     18  C11 UNL     1       0.257   2.983  -0.773  1.00  0.00    -0.012 C   
ATOM     19  C12 UNL     1      -0.072   4.447  -1.081  1.00  0.00     0.007 C   
ATOM     20  C13 UNL     1       0.752   2.860   0.668  1.00  0.00     0.007 C   
ENDBRANCH  17  18
ENDBRANCH  16  17
BRANCH  16  21
ATOM     21  N3  UNL     1       2.754   0.694  -2.663  1.00  0.00     0.249 N   
ATOM     22  H19 UNL     1       2.311   0.735  -3.592  1.00  0.00     0.199 HD  
ATOM     23  H20 UNL     1       3.456   1.440  -2.630  1.00  0.00     0.199 HD  
BRANCH  21  24
ATOM     24  C14 UNL     1       3.446  -0.626  -2.554  1.00  0.00     0.164 C   
BRANCH  24  25
ATOM     25  C15 UNL     1       4.237  -0.768  -1.284  1.00  0.00    -0.002 A   
ATOM     26  C16 UNL     1       3.789  -1.632  -0.256  1.00  0.00     0.012 A   
ATOM     27  C20 UNL     1       5.414  -0.022  -1.095  1.00  0.00     0.045 A   
ATOM     28  C17 UNL     1       4.495  -1.748   0.946  1.00  0.00     0.037 A   
ATOM     29  C19 UNL     1       6.086  -0.160   0.102  1.00  0.00     0.109 A   
ATOM     30  C18 UNL     1       5.640  -0.997   1.094  1.00  0.00     0.108 A   
ATOM     31  O2  UNL     1       7.229   0.490   0.444  1.00  0.00    -0.316 OA  
ATOM     32  O3  UNL     1       6.447  -0.981   2.186  1.00  0.00    -0.316 OA  
ATOM     33  C21 UNL     1       7.472  -0.058   1.760  1.00  0.00     0.337 C   
ENDBRANCH  24  25
ENDBRANCH  21  24
ENDBRANCH  16  21
ENDBRANCH   3  16
TORSDOF 9
