REMARK SMILES CC(C)C[C@H]([NH2+]Cc1ccc2c(c1)OCO2)c1cn(-c2ccc(O)cc2)nn1
REMARK SMILES IDX 17 1 18 2 19 3 27 4 28 5 5 6 4 7 2 8 1 9 3 10 6 11 7 14 8 15
REMARK SMILES IDX 9 16 13 17 10 18 12 19 11 20 14 21 16 22 15 23 20 24 21 25
REMARK SMILES IDX 26 26 22 27 25 28 23 29 24 30
REMARK H PARENT 6 12 6 13 24 31
ROOT
ATOM     1   C14 UNL     1      -0.068   1.307   1.108  1.00  0.00     0.127 A   
ATOM     2   C15 UNL     1       0.628   0.180   1.487  1.00  0.00     0.135 A   
ATOM     3   N2  UNL     1       0.669   0.230   2.867  1.00  0.00    -0.181 N   
ATOM     4   N3  UNL     1      -0.016   1.327   3.282  1.00  0.00    -0.071 NA  
ATOM     5   N4  UNL     1      -0.451   1.992   2.224  1.00  0.00    -0.131 NA  
ENDROOT
BRANCH   1   6
ATOM     6   C5  UNL     1      -0.470   1.812  -0.237  1.00  0.00     0.114 C   
BRANCH   6   7
ATOM     7   C4  UNL     1       0.478   2.910  -0.763  1.00  0.00     0.064 C   
BRANCH   7   8
ATOM     8   C2  UNL     1       1.933   2.459  -1.015  1.00  0.00    -0.012 C   
ATOM     9   C1  UNL     1       2.026   1.344  -2.058  1.00  0.00     0.007 C   
ATOM     10  C3  UNL     1       2.772   3.658  -1.467  1.00  0.00     0.007 C   
ENDBRANCH   7   8
ENDBRANCH   6   7
BRANCH   6  11
ATOM     11  N1  UNL     1      -1.855   2.431  -0.174  1.00  0.00     0.249 N   
ATOM     12  H11 UNL     1      -1.827   3.128   0.584  1.00  0.00     0.199 HD  
ATOM     13  H12 UNL     1      -2.052   2.936  -1.044  1.00  0.00     0.199 HD  
BRANCH  11  14
ATOM     14  C6  UNL     1      -2.990   1.504   0.118  1.00  0.00     0.164 C   
BRANCH  14  15
ATOM     15  C7  UNL     1      -3.192   0.470  -0.953  1.00  0.00    -0.002 A   
ATOM     16  C8  UNL     1      -3.748   0.830  -2.205  1.00  0.00     0.012 A   
ATOM     17  C12 UNL     1      -2.796  -0.861  -0.730  1.00  0.00     0.045 A   
ATOM     18  C9  UNL     1      -3.901  -0.119  -3.222  1.00  0.00     0.037 A   
ATOM     19  C11 UNL     1      -2.958  -1.769  -1.754  1.00  0.00     0.109 A   
ATOM     20  C10 UNL     1      -3.494  -1.409  -2.966  1.00  0.00     0.108 A   
ATOM     21  O1  UNL     1      -2.617  -3.083  -1.706  1.00  0.00    -0.316 OA  
ATOM     22  O2  UNL     1      -3.563  -2.453  -3.832  1.00  0.00    -0.316 OA  
ATOM     23  C13 UNL     1      -3.042  -3.524  -3.017  1.00  0.00     0.337 C   
ENDBRANCH  14  15
ENDBRANCH  11  14
ENDBRANCH   6  11
ENDBRANCH   1   6
BRANCH   3  24
ATOM     24  C16 UNL     1       1.273  -0.672   3.779  1.00  0.00     0.058 A   
ATOM     25  C17 UNL     1       1.969  -1.804   3.326  1.00  0.00     0.028 A   
ATOM     26  C21 UNL     1       1.173  -0.427   5.157  1.00  0.00     0.028 A   
ATOM     27  C18 UNL     1       2.556  -2.680   4.246  1.00  0.00     0.035 A   
ATOM     28  C20 UNL     1       1.761  -1.306   6.069  1.00  0.00     0.035 A   
ATOM     29  C19 UNL     1       2.446  -2.423   5.608  1.00  0.00     0.071 A   
BRANCH  29  30
ATOM     30  O3  UNL     1       3.002  -3.249   6.537  1.00  0.00    -0.361 OA  
ATOM     31  H23 UNL     1       3.459  -3.980   6.089  1.00  0.00     0.218 HD  
ENDBRANCH  29  30
ENDBRANCH   3  24
TORSDOF 8
