REMARK SMILES CC(C)C[C@H]([NH2+]Cc1ccc2c(c1)OCO2)c1cn(-c2ccc(F)c(N([O-])[O-])c2)nn1
REMARK SMILES IDX 17 1 18 2 19 3 30 4 31 5 5 6 4 7 2 8 1 9 3 10 6 11 7 14 8 15
REMARK SMILES IDX 9 16 13 17 10 18 12 19 11 20 14 21 16 22 15 23 20 24 21 25
REMARK SMILES IDX 29 26 22 27 25 28 23 29 24 30 26 31 27 32 28 33
REMARK H PARENT 6 12 6 13
ROOT
ATOM     1   C14 UNL     1      -1.471  -0.030  -0.402  1.00  0.00     0.127 A   
ATOM     2   C15 UNL     1      -0.200   0.194   0.077  1.00  0.00     0.135 A   
ATOM     3   N2  UNL     1      -0.199  -0.349   1.346  1.00  0.00    -0.181 N   
ATOM     4   N4  UNL     1      -1.449  -0.789   1.637  1.00  0.00    -0.071 NA  
ATOM     5   N5  UNL     1      -2.220  -0.624   0.574  1.00  0.00    -0.131 NA  
ENDROOT
BRANCH   1   6
ATOM     6   C5  UNL     1      -2.057   0.159  -1.762  1.00  0.00     0.114 C   
BRANCH   6   7
ATOM     7   C4  UNL     1      -3.147   1.247  -1.790  1.00  0.00     0.064 C   
BRANCH   7   8
ATOM     8   C2  UNL     1      -2.664   2.664  -1.414  1.00  0.00    -0.012 C   
ATOM     9   C1  UNL     1      -3.852   3.631  -1.416  1.00  0.00     0.007 C   
ATOM     10  C3  UNL     1      -1.579   3.181  -2.360  1.00  0.00     0.007 C   
ENDBRANCH   7   8
ENDBRANCH   6   7
BRANCH   6  11
ATOM     11  N1  UNL     1      -2.705  -1.143  -2.207  1.00  0.00     0.249 N   
ATOM     12  H11 UNL     1      -3.527  -0.948  -2.789  1.00  0.00     0.199 HD  
ATOM     13  H12 UNL     1      -3.068  -1.592  -1.352  1.00  0.00     0.199 HD  
BRANCH  11  14
ATOM     14  C6  UNL     1      -1.832  -2.116  -2.930  1.00  0.00     0.164 C   
BRANCH  14  15
ATOM     15  C7  UNL     1      -0.636  -2.581  -2.145  1.00  0.00    -0.002 A   
ATOM     16  C8  UNL     1      -0.797  -3.438  -1.029  1.00  0.00     0.012 A   
ATOM     17  C12 UNL     1       0.652  -2.130  -2.486  1.00  0.00     0.045 A   
ATOM     18  C9  UNL     1       0.300  -3.818  -0.248  1.00  0.00     0.037 A   
ATOM     19  C11 UNL     1       1.712  -2.525  -1.695  1.00  0.00     0.109 A   
ATOM     20  C10 UNL     1       1.541  -3.341  -0.605  1.00  0.00     0.108 A   
ATOM     21  O1  UNL     1       3.008  -2.153  -1.865  1.00  0.00    -0.316 OA  
ATOM     22  O2  UNL     1       2.708  -3.585   0.046  1.00  0.00    -0.316 OA  
ATOM     23  C13 UNL     1       3.652  -2.915  -0.818  1.00  0.00     0.337 C   
ENDBRANCH  14  15
ENDBRANCH  11  14
ENDBRANCH   6  11
ENDBRANCH   1   6
BRANCH   3  24
ATOM     24  C16 UNL     1       0.888  -0.532   2.239  1.00  0.00     0.060 A   
ATOM     25  C17 UNL     1       0.660  -1.098   3.507  1.00  0.00     0.029 A   
ATOM     26  C21 UNL     1       2.193  -0.189   1.861  1.00  0.00     0.060 A   
ATOM     27  C18 UNL     1       1.727  -1.319   4.388  1.00  0.00     0.043 A   
ATOM     28  C20 UNL     1       3.246  -0.436   2.755  1.00  0.00     0.155 A   
ATOM     29  C19 UNL     1       3.023  -0.989   4.008  1.00  0.00     0.151 A   
ATOM     30  F1  UNL     1       4.023  -1.196   4.874  1.00  0.00    -0.205 F   
BRANCH  28  31
ATOM     31  N3  UNL     1       4.597  -0.123   2.345  1.00  0.00     0.095 N   
ATOM     32  O3  UNL     1       4.769   0.975   1.798  1.00  0.00    -0.138 OA  
ATOM     33  O4  UNL     1       5.460  -0.996   2.494  1.00  0.00    -0.138 OA  
ENDBRANCH  28  31
ENDBRANCH   3  24
TORSDOF 8
