REMARK SMILES CCn1cncc1CCn1cc([C@@H]([NH2+]Cc2ccc3c(c2)OCO3)C(C)(C)C)nn1
REMARK SMILES IDX 10 1 11 2 12 3 29 4 30 5 9 7 8 8 7 9 3 10 4 11 5 12 6 13
REMARK SMILES IDX 2 14 1 15 13 16 14 17 15 20 16 21 17 22 21 23 18 24 20 25
REMARK SMILES IDX 19 26 22 27 24 28 23 29 25 30 26 31 27 32 28 33
REMARK H PARENT 11 6 14 18 14 19
ROOT
ATOM     1   N3  UNL     1      -2.702   1.301   2.339  1.00  0.00    -0.212 N   
ATOM     2   C8  UNL     1      -2.083   0.258   2.972  1.00  0.00     0.045 A   
ATOM     3   C9  UNL     1      -0.761   0.397   2.615  1.00  0.00     0.127 A   
ATOM     4   N5  UNL     1      -0.610   1.549   1.883  1.00  0.00    -0.132 NA  
ATOM     5   N6  UNL     1      -1.804   2.103   1.739  1.00  0.00    -0.076 NA  
ATOM     6   H12 UNL     1      -2.633  -0.513   3.494  1.00  0.00     0.083 HD  
ENDROOT
BRANCH   1   7
ATOM     7   C7  UNL     1      -4.122   1.452   2.091  1.00  0.00     0.140 C   
BRANCH   7   8
ATOM     8   C6  UNL     1      -4.498   1.348   0.604  1.00  0.00     0.074 C   
BRANCH   8   9
ATOM     9   C5  UNL     1      -3.927   0.145  -0.090  1.00  0.00     0.031 A   
ATOM     10  N1  UNL     1      -3.443   0.138  -1.381  1.00  0.00    -0.294 N   
ATOM     11  C3  UNL     1      -2.931  -1.107  -1.626  1.00  0.00     0.188 A   
ATOM     12  N2  UNL     1      -3.048  -1.892  -0.579  1.00  0.00    -0.247 NA  
ATOM     13  C4  UNL     1      -3.754  -1.159   0.337  1.00  0.00     0.131 A   
BRANCH  10  14
ATOM     14  C2  UNL     1      -3.443   1.226  -2.343  1.00  0.00     0.108 C   
ATOM     15  C1  UNL     1      -4.806   1.438  -2.979  1.00  0.00     0.025 C   
ENDBRANCH  10  14
ENDBRANCH   8   9
ENDBRANCH   7   8
ENDBRANCH   1   7
BRANCH   3  16
ATOM     16  C10 UNL     1       0.379  -0.565   2.747  1.00  0.00     0.120 C   
BRANCH  16  17
ATOM     17  N4  UNL     1       1.036  -0.734   1.397  1.00  0.00     0.250 N   
ATOM     18  H14 UNL     1       1.298   0.205   1.068  1.00  0.00     0.199 HD  
ATOM     19  H15 UNL     1       1.897  -1.283   1.452  1.00  0.00     0.199 HD  
BRANCH  17  20
ATOM     20  C11 UNL     1       0.162  -1.333   0.337  1.00  0.00     0.164 C   
BRANCH  20  21
ATOM     21  C12 UNL     1       0.929  -1.482  -0.948  1.00  0.00    -0.002 A   
ATOM     22  C13 UNL     1       1.484  -2.731  -1.312  1.00  0.00     0.012 A   
ATOM     23  C17 UNL     1       1.137  -0.362  -1.773  1.00  0.00     0.045 A   
ATOM     24  C14 UNL     1       2.231  -2.868  -2.487  1.00  0.00     0.037 A   
ATOM     25  C16 UNL     1       1.879  -0.532  -2.923  1.00  0.00     0.109 A   
ATOM     26  C15 UNL     1       2.411  -1.749  -3.271  1.00  0.00     0.108 A   
ATOM     27  O1  UNL     1       2.176   0.442  -3.823  1.00  0.00    -0.316 OA  
ATOM     28  O2  UNL     1       3.107  -1.696  -4.435  1.00  0.00    -0.316 OA  
ATOM     29  C18 UNL     1       2.934  -0.311  -4.799  1.00  0.00     0.337 C   
ENDBRANCH  20  21
ENDBRANCH  17  20
ENDBRANCH  16  17
BRANCH  16  30
ATOM     30  C19 UNL     1       1.436  -0.177   3.836  1.00  0.00     0.010 C   
ATOM     31  C20 UNL     1       0.740  -0.012   5.206  1.00  0.00     0.017 C   
ATOM     32  C21 UNL     1       2.187   1.130   3.512  1.00  0.00     0.017 C   
ATOM     33  C22 UNL     1       2.483  -1.305   3.992  1.00  0.00     0.017 C   
ENDBRANCH  16  30
ENDBRANCH   3  16
TORSDOF 9
