REMARK SMILES CC(C)C[C@H]([NH2+]Cc1ccc2c(c1)OCO2)c1cn(Cc2ccncc2F)nn1
REMARK SMILES IDX 17 1 18 2 19 3 28 4 29 5 5 7 4 8 2 9 1 10 3 11 6 12 7 15
REMARK SMILES IDX 8 16 9 17 13 18 10 19 12 20 11 21 14 22 16 23 15 24 20 25
REMARK SMILES IDX 21 26 22 27 26 28 23 29 25 30 24 31 27 32
REMARK H PARENT 18 6 6 13 6 14
ROOT
ATOM     1   C14 UNL     1      -1.640  -0.644  -1.155  1.00  0.00     0.127 A   
ATOM     2   C15 UNL     1      -0.648  -0.246  -2.023  1.00  0.00     0.046 A   
ATOM     3   N2  UNL     1      -0.966   1.054  -2.311  1.00  0.00    -0.208 N   
ATOM     4   N4  UNL     1      -2.102   1.421  -1.687  1.00  0.00    -0.076 NA  
ATOM     5   N5  UNL     1      -2.519   0.394  -0.968  1.00  0.00    -0.132 NA  
ATOM     6   H20 UNL     1       0.237  -0.726  -2.416  1.00  0.00     0.083 HD  
ENDROOT
BRANCH   1   7
ATOM     7   C5  UNL     1      -1.843  -1.914  -0.393  1.00  0.00     0.114 C   
BRANCH   7   8
ATOM     8   C4  UNL     1      -2.612  -2.956  -1.225  1.00  0.00     0.064 C   
BRANCH   8   9
ATOM     9   C2  UNL     1      -2.765  -4.343  -0.565  1.00  0.00    -0.012 C   
ATOM     10  C1  UNL     1      -3.662  -5.230  -1.432  1.00  0.00     0.007 C   
ATOM     11  C3  UNL     1      -1.417  -5.035  -0.349  1.00  0.00     0.007 C   
ENDBRANCH   8   9
ENDBRANCH   7   8
BRANCH   7  12
ATOM     12  N1  UNL     1      -2.627  -1.601   0.867  1.00  0.00     0.249 N   
ATOM     13  H11 UNL     1      -2.877  -0.601   0.797  1.00  0.00     0.199 HD  
ATOM     14  H12 UNL     1      -3.532  -2.082   0.859  1.00  0.00     0.199 HD  
BRANCH  12  15
ATOM     15  C6  UNL     1      -1.935  -1.820   2.164  1.00  0.00     0.164 C   
BRANCH  15  16
ATOM     16  C7  UNL     1      -0.622  -1.097   2.300  1.00  0.00    -0.002 A   
ATOM     17  C8  UNL     1       0.556  -1.830   2.584  1.00  0.00     0.012 A   
ATOM     18  C12 UNL     1      -0.545   0.301   2.153  1.00  0.00     0.045 A   
ATOM     19  C9  UNL     1       1.792  -1.187   2.709  1.00  0.00     0.037 A   
ATOM     20  C11 UNL     1       0.691   0.902   2.274  1.00  0.00     0.109 A   
ATOM     21  C10 UNL     1       1.826   0.180   2.546  1.00  0.00     0.108 A   
ATOM     22  O1  UNL     1       0.940   2.231   2.149  1.00  0.00    -0.316 OA  
ATOM     23  O2  UNL     1       2.932   0.963   2.633  1.00  0.00    -0.316 OA  
ATOM     24  C13 UNL     1       2.361   2.271   2.414  1.00  0.00     0.337 C   
ENDBRANCH  15  16
ENDBRANCH  12  15
ENDBRANCH   7  12
ENDBRANCH   1   7
BRANCH   3  25
ATOM     25  C16 UNL     1      -0.249   1.990  -3.159  1.00  0.00     0.172 C   
BRANCH  25  26
ATOM     26  C17 UNL     1       0.845   2.675  -2.393  1.00  0.00     0.010 A   
ATOM     27  C18 UNL     1       0.606   3.862  -1.690  1.00  0.00     0.028 A   
ATOM     28  C21 UNL     1       2.120   2.118  -2.327  1.00  0.00     0.146 A   
ATOM     29  C19 UNL     1       1.646   4.432  -0.971  1.00  0.00     0.111 A   
ATOM     30  C20 UNL     1       3.101   2.756  -1.589  1.00  0.00     0.150 A   
ATOM     31  N3  UNL     1       2.887   3.902  -0.901  1.00  0.00    -0.262 NA  
ATOM     32  F1  UNL     1       2.385   0.966  -2.958  1.00  0.00    -0.205 F   
ENDBRANCH  25  26
ENDBRANCH   3  25
TORSDOF 8
