REMARK SMILES Cc1[nH]nc(CC(C)C)c1Cn1cc([C@@H]([NH2+]Cc2ccc3c(c2)OCO3)C(C)(C)C)nn1
REMARK SMILES IDX 12 1 13 2 14 3 31 4 32 5 11 7 10 8 2 9 3 10 4 11 5 12 1 13
REMARK SMILES IDX 6 15 7 16 8 17 9 18 15 19 16 20 17 23 18 24 19 25 23 26
REMARK SMILES IDX 20 27 22 28 21 29 24 30 26 31 25 32 27 33 28 34 29 35 30 36
REMARK H PARENT 13 6 3 14 16 21 16 22
ROOT
ATOM     1   N3  UNL     1      -2.117  -1.599  -1.101  1.00  0.00    -0.208 N   
ATOM     2   C10 UNL     1      -1.125  -1.871  -0.197  1.00  0.00     0.046 A   
ATOM     3   C11 UNL     1      -1.458  -1.108   0.902  1.00  0.00     0.127 A   
ATOM     4   N5  UNL     1      -2.611  -0.415   0.636  1.00  0.00    -0.132 NA  
ATOM     5   N6  UNL     1      -3.014  -0.741  -0.581  1.00  0.00    -0.076 NA  
ATOM     6   H16 UNL     1      -0.297  -2.529  -0.426  1.00  0.00     0.083 HD  
ENDROOT
BRANCH   1   7
ATOM     7   C9  UNL     1      -2.268  -2.101  -2.459  1.00  0.00     0.173 C   
BRANCH   7   8
ATOM     8   C8  UNL     1      -1.149  -1.633  -3.329  1.00  0.00     0.013 A   
ATOM     9   C2  UNL     1      -0.147  -2.393  -3.914  1.00  0.00     0.028 A   
ATOM     10  N1  UNL     1       0.620  -1.518  -4.633  1.00  0.00    -0.242 N   
ATOM     11  N2  UNL     1       0.211  -0.249  -4.536  1.00  0.00    -0.189 NA  
ATOM     12  C3  UNL     1      -0.885  -0.302  -3.773  1.00  0.00     0.065 A   
ATOM     13  C1  UNL     1       0.154  -3.845  -3.882  1.00  0.00     0.064 C   
ATOM     14  H4  UNL     1       1.434  -1.716  -5.207  1.00  0.00     0.175 HD  
BRANCH  12  15
ATOM     15  C4  UNL     1      -1.660   0.956  -3.502  1.00  0.00     0.061 C   
BRANCH  15  16
ATOM     16  C5  UNL     1      -1.089   1.780  -2.330  1.00  0.00    -0.011 C   
ATOM     17  C6  UNL     1       0.192   2.532  -2.709  1.00  0.00     0.008 C   
ATOM     18  C7  UNL     1      -2.134   2.778  -1.829  1.00  0.00     0.008 C   
ENDBRANCH  15  16
ENDBRANCH  12  15
ENDBRANCH   7   8
ENDBRANCH   1   7
BRANCH   3  19
ATOM     19  C12 UNL     1      -0.740  -0.870   2.195  1.00  0.00     0.120 C   
BRANCH  19  20
ATOM     20  N4  UNL     1      -0.822   0.607   2.526  1.00  0.00     0.250 N   
ATOM     21  H18 UNL     1      -1.798   0.887   2.348  1.00  0.00     0.199 HD  
ATOM     22  H19 UNL     1      -0.642   0.776   3.518  1.00  0.00     0.199 HD  
BRANCH  20  23
ATOM     23  C13 UNL     1       0.052   1.513   1.720  1.00  0.00     0.164 C   
BRANCH  23  24
ATOM     24  C14 UNL     1       1.518   1.263   1.947  1.00  0.00    -0.002 A   
ATOM     25  C15 UNL     1       2.318   0.718   0.912  1.00  0.00     0.012 A   
ATOM     26  C19 UNL     1       2.097   1.528   3.200  1.00  0.00     0.045 A   
ATOM     27  C16 UNL     1       3.669   0.423   1.127  1.00  0.00     0.037 A   
ATOM     28  C18 UNL     1       3.431   1.224   3.378  1.00  0.00     0.109 A   
ATOM     29  C17 UNL     1       4.195   0.685   2.373  1.00  0.00     0.108 A   
ATOM     30  O1  UNL     1       4.136   1.412   4.524  1.00  0.00    -0.316 OA  
ATOM     31  O2  UNL     1       5.477   0.458   2.761  1.00  0.00    -0.316 OA  
ATOM     32  C20 UNL     1       5.447   0.958   4.117  1.00  0.00     0.337 C   
ENDBRANCH  23  24
ENDBRANCH  20  23
ENDBRANCH  19  20
BRANCH  19  33
ATOM     33  C21 UNL     1      -1.268  -1.726   3.399  1.00  0.00     0.010 C   
ATOM     34  C22 UNL     1      -2.703  -1.352   3.819  1.00  0.00     0.017 C   
ATOM     35  C23 UNL     1      -0.340  -1.549   4.624  1.00  0.00     0.017 C   
ATOM     36  C24 UNL     1      -1.244  -3.228   3.035  1.00  0.00     0.017 C   
ENDBRANCH  19  33
ENDBRANCH   3  19
TORSDOF 9
