REMARK SMILES COc1cc(C)c(F)cc1Cn1cc([C@H](CC(C)C)[NH2+]Cc2ccc3c(c2)OCO3)nn1
REMARK SMILES IDX 12 1 13 2 14 3 31 4 32 5 11 7 10 8 3 9 4 10 5 11 9 12 7 13
REMARK SMILES IDX 6 14 8 15 2 16 1 17 15 18 16 19 17 20 18 21 19 22 20 23
REMARK SMILES IDX 21 26 22 27 23 28 27 29 24 30 26 31 25 32 28 33 30 34 29 35
REMARK H PARENT 13 6 20 24 20 25
ROOT
ATOM     1   N1  UNL     1       0.072  -0.096  -1.736  1.00  0.00    -0.208 N   
ATOM     2   C10 UNL     1      -0.989   0.463  -1.077  1.00  0.00     0.046 A   
ATOM     3   C11 UNL     1      -0.662   1.796  -0.992  1.00  0.00     0.127 A   
ATOM     4   N3  UNL     1       0.555   2.002  -1.589  1.00  0.00    -0.132 NA  
ATOM     5   N4  UNL     1       0.991   0.841  -2.048  1.00  0.00    -0.076 NA  
ATOM     6   H11 UNL     1      -1.833  -0.123  -0.743  1.00  0.00     0.083 HD  
ENDROOT
BRANCH   1   7
ATOM     7   C9  UNL     1       0.219  -1.464  -2.203  1.00  0.00     0.172 C   
BRANCH   7   8
ATOM     8   C8  UNL     1       0.979  -2.322  -1.222  1.00  0.00     0.005 A   
ATOM     9   C2  UNL     1       0.336  -2.952  -0.139  1.00  0.00     0.080 A   
ATOM     10  C3  UNL     1       1.068  -3.794   0.710  1.00  0.00     0.040 A   
ATOM     11  C4  UNL     1       2.436  -4.018   0.495  1.00  0.00    -0.013 A   
ATOM     12  C7  UNL     1       2.359  -2.509  -1.401  1.00  0.00     0.047 A   
ATOM     13  C6  UNL     1       3.069  -3.347  -0.549  1.00  0.00     0.126 A   
ATOM     14  C5  UNL     1       3.224  -4.920   1.397  1.00  0.00     0.047 C   
ATOM     15  F1  UNL     1       4.384  -3.507  -0.746  1.00  0.00    -0.207 F   
BRANCH   9  16
ATOM     16  O1  UNL     1      -1.004  -2.687  -0.009  1.00  0.00    -0.349 OA  
ATOM     17  C1  UNL     1      -1.684  -3.289   1.089  1.00  0.00     0.203 C   
ENDBRANCH   9  16
ENDBRANCH   7   8
ENDBRANCH   1   7
BRANCH   3  18
ATOM     18  C12 UNL     1      -1.365   2.950  -0.359  1.00  0.00     0.114 C   
BRANCH  18  19
ATOM     19  C13 UNL     1      -2.259   3.680  -1.379  1.00  0.00     0.064 C   
BRANCH  19  20
ATOM     20  C14 UNL     1      -3.146   4.807  -0.805  1.00  0.00    -0.012 C   
ATOM     21  C15 UNL     1      -3.916   5.485  -1.942  1.00  0.00     0.007 C   
ATOM     22  C16 UNL     1      -4.129   4.298   0.249  1.00  0.00     0.007 C   
ENDBRANCH  19  20
ENDBRANCH  18  19
BRANCH  18  23
ATOM     23  N2  UNL     1      -0.335   3.916   0.184  1.00  0.00     0.249 N   
ATOM     24  H22 UNL     1      -0.538   4.878  -0.102  1.00  0.00     0.199 HD  
ATOM     25  H23 UNL     1       0.548   3.677  -0.299  1.00  0.00     0.199 HD  
BRANCH  23  26
ATOM     26  C17 UNL     1      -0.090   3.864   1.652  1.00  0.00     0.164 C   
BRANCH  26  27
ATOM     27  C18 UNL     1       0.421   2.535   2.137  1.00  0.00    -0.002 A   
ATOM     28  C19 UNL     1      -0.413   1.676   2.895  1.00  0.00     0.012 A   
ATOM     29  C23 UNL     1       1.728   2.124   1.821  1.00  0.00     0.045 A   
ATOM     30  C20 UNL     1       0.042   0.420   3.321  1.00  0.00     0.037 A   
ATOM     31  C22 UNL     1       2.148   0.887   2.267  1.00  0.00     0.109 A   
ATOM     32  C21 UNL     1       1.327   0.055   2.990  1.00  0.00     0.108 A   
ATOM     33  O2  UNL     1       3.382   0.355   2.064  1.00  0.00    -0.316 OA  
ATOM     34  O3  UNL     1       1.940  -1.113   3.325  1.00  0.00    -0.316 OA  
ATOM     35  C24 UNL     1       3.257  -0.899   2.771  1.00  0.00     0.337 C   
ENDBRANCH  26  27
ENDBRANCH  23  26
ENDBRANCH  18  23
ENDBRANCH   3  18
TORSDOF 9
