REMARK SMILES Cc1ccsc1[C@@H](CO)n1cc([C@@H]([NH2+]Cc2ccc3c(c2)OCO3)C2CCCCC2)nn1
REMARK SMILES IDX 10 1 11 2 12 3 31 4 32 5 7 7 6 8 2 9 3 10 4 11 5 12 1 13
REMARK SMILES IDX 8 14 9 15 13 17 14 18 15 21 16 22 17 23 21 24 18 25 20 26
REMARK SMILES IDX 19 27 22 28 24 29 23 30 25 31 26 32 30 33 27 34 29 35 28 36
REMARK H PARENT 11 6 9 16 14 19 14 20
ROOT
ATOM     1   N1  UNL     1       1.845   2.682  -0.003  1.00  0.00    -0.202 N   
ATOM     2   C8  UNL     1       1.221   2.196  -1.125  1.00  0.00     0.046 A   
ATOM     3   C9  UNL     1       0.980   0.873  -0.832  1.00  0.00     0.127 A   
ATOM     4   N3  UNL     1       1.508   0.585   0.400  1.00  0.00    -0.132 NA  
ATOM     5   N4  UNL     1       2.061   1.684   0.882  1.00  0.00    -0.075 NA  
ATOM     6   H10 UNL     1       0.981   2.828  -1.968  1.00  0.00     0.083 HD  
ENDROOT
BRANCH   1   7
ATOM     7   C6  UNL     1       2.280   4.056   0.251  1.00  0.00     0.162 C   
BRANCH   7   8
ATOM     8   C5  UNL     1       1.087   5.002   0.226  1.00  0.00     0.017 A   
ATOM     9   C2  UNL     1      -0.042   5.080   1.037  1.00  0.00    -0.039 A   
ATOM     10  C3  UNL     1      -0.906   6.147   0.618  1.00  0.00     0.011 A   
ATOM     11  C4  UNL     1      -0.431   6.829  -0.476  1.00  0.00     0.046 A   
ATOM     12  S1  UNL     1       1.056   6.205  -1.013  1.00  0.00    -0.100 S   
ATOM     13  C1  UNL     1      -0.364   4.220   2.218  1.00  0.00     0.045 C   
ENDBRANCH   7   8
BRANCH   7  14
ATOM     14  C7  UNL     1       3.182   4.238   1.491  1.00  0.00     0.186 C   
BRANCH  14  15
ATOM     15  O1  UNL     1       2.604   3.790   2.716  1.00  0.00    -0.394 OA  
ATOM     16  H9  UNL     1       2.479   2.824   2.638  1.00  0.00     0.210 HD  
ENDBRANCH  14  15
ENDBRANCH   7  14
ENDBRANCH   1   7
BRANCH   3  17
ATOM     17  C10 UNL     1       0.282  -0.199  -1.613  1.00  0.00     0.117 C   
BRANCH  17  18
ATOM     18  N2  UNL     1       0.636  -1.557  -1.073  1.00  0.00     0.249 N   
ATOM     19  H12 UNL     1      -0.070  -2.264  -1.293  1.00  0.00     0.199 HD  
ATOM     20  H13 UNL     1       0.648  -1.472  -0.045  1.00  0.00     0.199 HD  
BRANCH  18  21
ATOM     21  C11 UNL     1       1.975  -2.073  -1.475  1.00  0.00     0.164 C   
BRANCH  21  22
ATOM     22  C12 UNL     1       2.253  -3.382  -0.792  1.00  0.00    -0.002 A   
ATOM     23  C13 UNL     1       1.946  -4.606  -1.430  1.00  0.00     0.012 A   
ATOM     24  C17 UNL     1       2.765  -3.392   0.517  1.00  0.00     0.045 A   
ATOM     25  C14 UNL     1       2.154  -5.827  -0.779  1.00  0.00     0.037 A   
ATOM     26  C16 UNL     1       2.954  -4.612   1.132  1.00  0.00     0.109 A   
ATOM     27  C15 UNL     1       2.656  -5.795   0.503  1.00  0.00     0.108 A   
ATOM     28  O2  UNL     1       3.430  -4.798   2.391  1.00  0.00    -0.316 OA  
ATOM     29  O3  UNL     1       2.910  -6.876   1.286  1.00  0.00    -0.316 OA  
ATOM     30  C18 UNL     1       3.412  -6.241   2.481  1.00  0.00     0.337 C   
ENDBRANCH  21  22
ENDBRANCH  18  21
ENDBRANCH  17  18
BRANCH  17  31
ATOM     31  C19 UNL     1      -1.259  -0.003  -1.616  1.00  0.00     0.043 C   
ATOM     32  C20 UNL     1      -1.919  -0.223  -0.240  1.00  0.00     0.010 C   
ATOM     33  C24 UNL     1      -1.944  -0.880  -2.683  1.00  0.00     0.010 C   
ATOM     34  C21 UNL     1      -3.427   0.019  -0.295  1.00  0.00     0.001 C   
ATOM     35  C23 UNL     1      -3.451  -0.633  -2.731  1.00  0.00     0.001 C   
ATOM     36  C22 UNL     1      -4.096  -0.837  -1.365  1.00  0.00     0.000 C   
ENDBRANCH  17  31
ENDBRANCH   3  17
TORSDOF 9
