REMARK SMILES Cc1ccsc1[C@H](CO)n1cc([C@@H]([NH2+]Cc2ccc3c(c2)OCO3)C2CCCCC2)nn1
REMARK SMILES IDX 10 1 11 2 12 3 31 4 32 5 7 7 6 8 2 9 3 10 4 11 5 12 1 13
REMARK SMILES IDX 8 14 9 15 13 17 14 18 15 21 16 22 17 23 21 24 18 25 20 26
REMARK SMILES IDX 19 27 22 28 24 29 23 30 25 31 26 32 30 33 27 34 29 35 28 36
REMARK H PARENT 11 6 9 16 14 19 14 20
ROOT
ATOM     1   N1  UNL     1       1.944  -1.538  -2.106  1.00  0.00    -0.202 N   
ATOM     2   C8  UNL     1       2.222  -0.306  -1.571  1.00  0.00     0.046 A   
ATOM     3   C9  UNL     1       1.474  -0.261  -0.415  1.00  0.00     0.127 A   
ATOM     4   N3  UNL     1       0.770  -1.431  -0.293  1.00  0.00    -0.132 NA  
ATOM     5   N4  UNL     1       1.070  -2.204  -1.324  1.00  0.00    -0.075 NA  
ATOM     6   H10 UNL     1       2.893   0.391  -2.054  1.00  0.00     0.083 HD  
ENDROOT
BRANCH   1   7
ATOM     7   C6  UNL     1       2.494  -2.118  -3.329  1.00  0.00     0.162 C   
BRANCH   7   8
ATOM     8   C5  UNL     1       1.781  -1.526  -4.537  1.00  0.00     0.017 A   
ATOM     9   C2  UNL     1       0.489  -1.708  -5.025  1.00  0.00    -0.039 A   
ATOM     10  C3  UNL     1       0.269  -0.926  -6.210  1.00  0.00     0.011 A   
ATOM     11  C4  UNL     1       1.364  -0.184  -6.577  1.00  0.00     0.046 A   
ATOM     12  S1  UNL     1       2.665  -0.406  -5.509  1.00  0.00    -0.100 S   
ATOM     13  C1  UNL     1      -0.571  -2.598  -4.458  1.00  0.00     0.045 C   
ENDBRANCH   7   8
BRANCH   7  14
ATOM     14  C7  UNL     1       2.530  -3.655  -3.321  1.00  0.00     0.186 C   
BRANCH  14  15
ATOM     15  O1  UNL     1       3.447  -4.140  -4.303  1.00  0.00    -0.394 OA  
ATOM     16  H9  UNL     1       3.372  -5.112  -4.322  1.00  0.00     0.210 HD  
ENDBRANCH  14  15
ENDBRANCH   7  14
ENDBRANCH   1   7
BRANCH   3  17
ATOM     17  C10 UNL     1       1.289   0.825   0.598  1.00  0.00     0.117 C   
BRANCH  17  18
ATOM     18  N2  UNL     1      -0.152   0.805   1.039  1.00  0.00     0.249 N   
ATOM     19  H12 UNL     1      -0.352  -0.108   1.469  1.00  0.00     0.199 HD  
ATOM     20  H13 UNL     1      -0.726   0.786   0.185  1.00  0.00     0.199 HD  
BRANCH  18  21
ATOM     21  C11 UNL     1      -0.634   1.911   1.899  1.00  0.00     0.164 C   
BRANCH  21  22
ATOM     22  C12 UNL     1      -2.127   1.846   2.053  1.00  0.00    -0.002 A   
ATOM     23  C13 UNL     1      -2.706   1.067   3.083  1.00  0.00     0.012 A   
ATOM     24  C17 UNL     1      -2.960   2.515   1.141  1.00  0.00     0.045 A   
ATOM     25  C14 UNL     1      -4.095   0.964   3.212  1.00  0.00     0.037 A   
ATOM     26  C16 UNL     1      -4.325   2.393   1.297  1.00  0.00     0.109 A   
ATOM     27  C15 UNL     1      -4.877   1.641   2.303  1.00  0.00     0.108 A   
ATOM     28  O2  UNL     1      -5.265   2.973   0.507  1.00  0.00    -0.316 OA  
ATOM     29  O3  UNL     1      -6.234   1.655   2.276  1.00  0.00    -0.316 OA  
ATOM     30  C18 UNL     1      -6.479   2.518   1.145  1.00  0.00     0.337 C   
ENDBRANCH  21  22
ENDBRANCH  18  21
ENDBRANCH  17  18
BRANCH  17  31
ATOM     31  C19 UNL     1       2.248   0.728   1.815  1.00  0.00     0.043 C   
ATOM     32  C20 UNL     1       3.722   0.880   1.387  1.00  0.00     0.010 C   
ATOM     33  C24 UNL     1       2.073  -0.546   2.666  1.00  0.00     0.010 C   
ATOM     34  C21 UNL     1       4.663   0.872   2.591  1.00  0.00     0.001 C   
ATOM     35  C23 UNL     1       3.022  -0.558   3.864  1.00  0.00     0.001 C   
ATOM     36  C22 UNL     1       4.476  -0.382   3.439  1.00  0.00     0.000 C   
ENDBRANCH  17  31
ENDBRANCH   3  17
TORSDOF 9
