REMARK SMILES CC(C)[C@H]([NH2+]Cc1ccc2c(c1)OCO2)c1cn(-c2ccc(CO)cc2F)nn1
REMARK SMILES IDX 16 1 17 2 18 3 28 4 29 5 4 6 2 7 1 8 3 9 5 10 6 13 7 14 8 15
REMARK SMILES IDX 12 16 9 17 11 18 10 19 13 20 15 21 14 22 19 23 20 24 26 25
REMARK SMILES IDX 21 26 25 27 22 28 27 29 23 30 24 31
REMARK H PARENT 5 11 5 12 24 32
ROOT
ATOM     1   C13 UNL     1       1.166   0.352   2.136  1.00  0.00     0.127 A   
ATOM     2   C14 UNL     1       1.014  -0.785   1.375  1.00  0.00     0.135 A   
ATOM     3   N2  UNL     1      -0.351  -0.971   1.272  1.00  0.00    -0.178 N   
ATOM     4   N3  UNL     1      -0.971  -0.034   2.040  1.00  0.00    -0.071 NA  
ATOM     5   N4  UNL     1      -0.063   0.789   2.536  1.00  0.00    -0.131 NA  
ENDROOT
BRANCH   1   6
ATOM     6   C4  UNL     1       2.373   1.184   2.429  1.00  0.00     0.117 C   
BRANCH   6   7
ATOM     7   C2  UNL     1       2.912   0.973   3.868  1.00  0.00     0.037 C   
ATOM     8   C1  UNL     1       1.989   1.491   4.978  1.00  0.00     0.014 C   
ATOM     9   C3  UNL     1       4.309   1.584   4.034  1.00  0.00     0.014 C   
ENDBRANCH   6   7
BRANCH   6  10
ATOM     10  N1  UNL     1       2.043   2.642   2.185  1.00  0.00     0.249 N   
ATOM     11  H9  UNL     1       1.032   2.737   2.371  1.00  0.00     0.199 HD  
ATOM     12  H10 UNL     1       2.509   3.245   2.869  1.00  0.00     0.199 HD  
BRANCH  10  13
ATOM     13  C5  UNL     1       2.319   3.172   0.814  1.00  0.00     0.164 C   
BRANCH  13  14
ATOM     14  C6  UNL     1       1.657   2.407  -0.298  1.00  0.00    -0.002 A   
ATOM     15  C7  UNL     1       2.432   1.597  -1.165  1.00  0.00     0.012 A   
ATOM     16  C11 UNL     1       0.260   2.444  -0.458  1.00  0.00     0.045 A   
ATOM     17  C8  UNL     1       1.826   0.814  -2.154  1.00  0.00     0.037 A   
ATOM     18  C10 UNL     1      -0.306   1.654  -1.438  1.00  0.00     0.109 A   
ATOM     19  C9  UNL     1       0.454   0.858  -2.259  1.00  0.00     0.108 A   
ATOM     20  O1  UNL     1      -1.636   1.545  -1.696  1.00  0.00    -0.316 OA  
ATOM     21  O2  UNL     1      -0.300   0.150  -3.139  1.00  0.00    -0.316 OA  
ATOM     22  C12 UNL     1      -1.629   0.589  -2.782  1.00  0.00     0.337 C   
ENDBRANCH  13  14
ENDBRANCH  10  13
ENDBRANCH   6  10
ENDBRANCH   1   6
BRANCH   3  23
ATOM     23  C15 UNL     1      -1.091  -1.891   0.494  1.00  0.00     0.093 A   
ATOM     24  C16 UNL     1      -2.494  -1.874   0.553  1.00  0.00     0.029 A   
ATOM     25  C21 UNL     1      -0.464  -2.799  -0.361  1.00  0.00     0.147 A   
ATOM     26  C17 UNL     1      -3.247  -2.749  -0.239  1.00  0.00     0.008 A   
ATOM     27  C20 UNL     1      -1.215  -3.668  -1.151  1.00  0.00     0.047 A   
ATOM     28  C18 UNL     1      -2.615  -3.648  -1.106  1.00  0.00    -0.020 A   
ATOM     29  F1  UNL     1       0.870  -2.861  -0.472  1.00  0.00    -0.205 F   
BRANCH  28  30
ATOM     30  C19 UNL     1      -3.417  -4.589  -1.963  1.00  0.00     0.191 C   
BRANCH  30  31
ATOM     31  O3  UNL     1      -3.009  -4.439  -3.317  1.00  0.00    -0.392 OA  
ATOM     32  H23 UNL     1      -3.545  -5.060  -3.841  1.00  0.00     0.211 HD  
ENDBRANCH  30  31
ENDBRANCH  28  30
ENDBRANCH   3  23
TORSDOF 8
