REMARK SMILES CC(C)(C)[C@H]([NH2+]Cc1ccc2c(c1)OCO2)c1cn(CCc2ccc(O)cc2Cl)nn1
REMARK SMILES IDX 17 1 18 2 19 3 30 4 31 5 5 7 2 8 1 9 3 10 4 11 6 12 7 15
REMARK SMILES IDX 8 16 9 17 13 18 10 19 12 20 11 21 14 22 16 23 15 24 20 25
REMARK SMILES IDX 21 26 22 27 23 28 28 29 24 30 27 31 25 32 29 33 26 34
REMARK H PARENT 18 6 6 13 6 14 26 35
ROOT
ATOM     1   C14 UNL     1       0.361  -1.803  -1.154  1.00  0.00     0.127 A   
ATOM     2   C15 UNL     1       0.362  -2.272   0.142  1.00  0.00     0.045 A   
ATOM     3   N2  UNL     1       1.520  -2.992   0.229  1.00  0.00    -0.212 N   
ATOM     4   N3  UNL     1       2.193  -2.968  -0.934  1.00  0.00    -0.076 NA  
ATOM     5   N4  UNL     1       1.496  -2.239  -1.790  1.00  0.00    -0.132 NA  
ATOM     6   H20 UNL     1      -0.315  -2.156   0.977  1.00  0.00     0.083 HD  
ENDROOT
BRANCH   1   7
ATOM     7   C5  UNL     1      -0.584  -0.893  -1.878  1.00  0.00     0.120 C   
BRANCH   7   8
ATOM     8   C2  UNL     1      -1.695  -1.640  -2.698  1.00  0.00     0.010 C   
ATOM     9   C1  UNL     1      -2.492  -2.589  -1.774  1.00  0.00     0.017 C   
ATOM     10  C3  UNL     1      -1.122  -2.468  -3.865  1.00  0.00     0.017 C   
ATOM     11  C4  UNL     1      -2.708  -0.623  -3.275  1.00  0.00     0.017 C   
ENDBRANCH   7   8
BRANCH   7  12
ATOM     12  N1  UNL     1       0.220   0.015  -2.789  1.00  0.00     0.250 N   
ATOM     13  H11 UNL     1      -0.366   0.442  -3.508  1.00  0.00     0.199 HD  
ATOM     14  H12 UNL     1       0.896  -0.596  -3.271  1.00  0.00     0.199 HD  
BRANCH  12  15
ATOM     15  C6  UNL     1       1.010   1.089  -2.116  1.00  0.00     0.164 C   
BRANCH  15  16
ATOM     16  C7  UNL     1       0.140   2.147  -1.496  1.00  0.00    -0.002 A   
ATOM     17  C8  UNL     1       0.007   2.226  -0.089  1.00  0.00     0.012 A   
ATOM     18  C12 UNL     1      -0.573   3.046  -2.308  1.00  0.00     0.045 A   
ATOM     19  C9  UNL     1      -0.827   3.180   0.505  1.00  0.00     0.037 A   
ATOM     20  C11 UNL     1      -1.388   3.973  -1.691  1.00  0.00     0.109 A   
ATOM     21  C10 UNL     1      -1.512   4.038  -0.325  1.00  0.00     0.108 A   
ATOM     22  O1  UNL     1      -2.146   4.904  -2.327  1.00  0.00    -0.316 OA  
ATOM     23  O2  UNL     1      -2.364   5.019   0.071  1.00  0.00    -0.316 OA  
ATOM     24  C13 UNL     1      -2.740   5.590  -1.201  1.00  0.00     0.337 C   
ENDBRANCH  15  16
ENDBRANCH  12  15
ENDBRANCH   7  12
ENDBRANCH   1   7
BRANCH   3  25
ATOM     25  C16 UNL     1       2.038  -3.724   1.365  1.00  0.00     0.139 C   
BRANCH  25  26
ATOM     26  C17 UNL     1       3.068  -2.937   2.179  1.00  0.00     0.058 C   
BRANCH  26  27
ATOM     27  C18 UNL     1       2.464  -1.774   2.941  1.00  0.00    -0.028 A   
ATOM     28  C19 UNL     1       1.765  -2.046   4.133  1.00  0.00     0.008 A   
ATOM     29  C23 UNL     1       2.551  -0.439   2.509  1.00  0.00     0.046 A   
ATOM     30  C20 UNL     1       1.164  -1.020   4.866  1.00  0.00     0.033 A   
ATOM     31  C22 UNL     1       1.951   0.587   3.244  1.00  0.00     0.054 A   
ATOM     32  C21 UNL     1       1.261   0.288   4.411  1.00  0.00     0.073 A   
ATOM     33  CL1 UNL     1       3.366   0.008   1.054  1.00  0.00    -0.084 Cl  
BRANCH  32  34
ATOM     34  O3  UNL     1       0.683   1.322   5.084  1.00  0.00    -0.361 OA  
ATOM     35  H27 UNL     1       0.355   1.004   5.943  1.00  0.00     0.218 HD  
ENDBRANCH  32  34
ENDBRANCH  26  27
ENDBRANCH  25  26
ENDBRANCH   3  25
TORSDOF 9
