REMARK SMILES CC(C)(C)[C@H]([NH2+]Cc1ccc2c(c1)OCO2)c1cn(Cc2cc(F)ccn2)nn1
REMARK SMILES IDX 17 1 18 2 19 3 28 4 29 5 5 7 2 8 1 9 3 10 4 11 6 12 7 15
REMARK SMILES IDX 8 16 9 17 13 18 10 19 12 20 11 21 14 22 16 23 15 24 20 25
REMARK SMILES IDX 21 26 22 27 27 28 23 29 26 30 25 31 24 32
REMARK H PARENT 18 6 6 13 6 14
ROOT
ATOM     1   C14 UNL     1      -0.900  -0.644   1.329  1.00  0.00     0.127 A   
ATOM     2   C15 UNL     1      -1.239  -1.570   0.368  1.00  0.00     0.046 A   
ATOM     3   N2  UNL     1      -2.569  -1.804   0.588  1.00  0.00    -0.206 N   
ATOM     4   N4  UNL     1      -3.023  -1.066   1.619  1.00  0.00    -0.076 NA  
ATOM     5   N5  UNL     1      -2.010  -0.353   2.083  1.00  0.00    -0.132 NA  
ATOM     6   H20 UNL     1      -0.696  -2.045  -0.437  1.00  0.00     0.083 HD  
ENDROOT
BRANCH   1   7
ATOM     7   C5  UNL     1       0.379   0.097   1.576  1.00  0.00     0.120 C   
BRANCH   7   8
ATOM     8   C2  UNL     1       1.306  -0.564   2.657  1.00  0.00     0.010 C   
ATOM     9   C1  UNL     1       2.664   0.175   2.721  1.00  0.00     0.017 C   
ATOM     10  C3  UNL     1       0.684  -0.553   4.068  1.00  0.00     0.017 C   
ATOM     11  C4  UNL     1       1.612  -2.030   2.273  1.00  0.00     0.017 C   
ENDBRANCH   7   8
BRANCH   7  12
ATOM     12  N1  UNL     1       0.051   1.526   1.967  1.00  0.00     0.250 N   
ATOM     13  H11 UNL     1       0.872   2.005   2.341  1.00  0.00     0.199 HD  
ATOM     14  H12 UNL     1      -0.641   1.460   2.727  1.00  0.00     0.199 HD  
BRANCH  12  15
ATOM     15  C6  UNL     1      -0.558   2.383   0.905  1.00  0.00     0.164 C   
BRANCH  15  16
ATOM     16  C7  UNL     1       0.399   2.705  -0.208  1.00  0.00    -0.002 A   
ATOM     17  C8  UNL     1       1.428   3.658  -0.016  1.00  0.00     0.012 A   
ATOM     18  C12 UNL     1       0.294   2.038  -1.442  1.00  0.00     0.045 A   
ATOM     19  C9  UNL     1       2.339   3.945  -1.038  1.00  0.00     0.037 A   
ATOM     20  C11 UNL     1       1.213   2.340  -2.425  1.00  0.00     0.109 A   
ATOM     21  C10 UNL     1       2.206   3.267  -2.230  1.00  0.00     0.108 A   
ATOM     22  O1  UNL     1       1.257   1.786  -3.665  1.00  0.00    -0.316 OA  
ATOM     23  O2  UNL     1       2.997   3.419  -3.324  1.00  0.00    -0.316 OA  
ATOM     24  C13 UNL     1       2.386   2.485  -4.237  1.00  0.00     0.337 C   
ENDBRANCH  15  16
ENDBRANCH  12  15
ENDBRANCH   7  12
ENDBRANCH   1   7
BRANCH   3  25
ATOM     25  C16 UNL     1      -3.454  -2.696  -0.135  1.00  0.00     0.190 C   
BRANCH  25  26
ATOM     26  C17 UNL     1      -3.924  -2.042  -1.405  1.00  0.00     0.063 A   
ATOM     27  C18 UNL     1      -5.087  -1.284  -1.428  1.00  0.00     0.064 A   
ATOM     28  N3  UNL     1      -3.145  -2.207  -2.506  1.00  0.00    -0.259 NA  
ATOM     29  C19 UNL     1      -5.458  -0.703  -2.631  1.00  0.00     0.126 A   
ATOM     30  C21 UNL     1      -3.553  -1.633  -3.663  1.00  0.00     0.114 A   
ATOM     31  C20 UNL     1      -4.698  -0.873  -3.773  1.00  0.00     0.059 A   
ATOM     32  F1  UNL     1      -6.570   0.039  -2.686  1.00  0.00    -0.207 F   
ENDBRANCH  25  26
ENDBRANCH   3  25
TORSDOF 7
