REMARK SMILES Cc1cccc([C@H](CO)n2cc([C@@H]([NH2+]Cc3ccc4c(c3)OCO4)C(C)C)nn2)c1
REMARK SMILES IDX 10 1 11 2 12 3 28 4 29 5 7 7 6 8 2 9 3 10 30 11 4 12 5 13
REMARK SMILES IDX 1 14 8 15 9 16 13 18 14 19 15 22 16 23 17 24 21 25 18 26
REMARK SMILES IDX 20 27 19 28 22 29 24 30 23 31 25 32 26 33 27 34
REMARK H PARENT 11 6 9 17 14 20 14 21
ROOT
ATOM     1   N1  UNL     1      -1.083   0.451  -1.039  1.00  0.00    -0.202 N   
ATOM     2   C9  UNL     1       0.138   0.956  -0.680  1.00  0.00     0.046 A   
ATOM     3   C10 UNL     1       0.992  -0.115  -0.794  1.00  0.00     0.127 A   
ATOM     4   N3  UNL     1       0.281  -1.219  -1.194  1.00  0.00    -0.132 NA  
ATOM     5   N4  UNL     1      -0.984  -0.862  -1.342  1.00  0.00    -0.075 NA  
ATOM     6   H11 UNL     1       0.265   1.985  -0.374  1.00  0.00     0.083 HD  
ENDROOT
BRANCH   1   7
ATOM     7   C7  UNL     1      -2.379   1.127  -1.100  1.00  0.00     0.155 C   
BRANCH   7   8
ATOM     8   C6  UNL     1      -2.279   2.405  -1.926  1.00  0.00    -0.023 A   
ATOM     9   C2  UNL     1      -2.074   3.434  -4.142  1.00  0.00    -0.051 A   
ATOM     10  C3  UNL     1      -2.064   4.697  -3.546  1.00  0.00     0.003 A   
ATOM     11  C23 UNL     1      -2.193   2.299  -3.329  1.00  0.00     0.009 A   
ATOM     12  C4  UNL     1      -2.145   4.821  -2.161  1.00  0.00     0.001 A   
ATOM     13  C5  UNL     1      -2.248   3.685  -1.356  1.00  0.00     0.006 A   
ATOM     14  C1  UNL     1      -2.026   3.298  -5.636  1.00  0.00     0.044 C   
ENDBRANCH   7   8
BRANCH   7  15
ATOM     15  C8  UNL     1      -3.012   1.226   0.303  1.00  0.00     0.185 C   
BRANCH  15  16
ATOM     16  O1  UNL     1      -2.193   1.921   1.244  1.00  0.00    -0.394 OA  
ATOM     17  H10 UNL     1      -2.605   1.798   2.121  1.00  0.00     0.210 HD  
ENDBRANCH  15  16
ENDBRANCH   7  15
ENDBRANCH   1   7
BRANCH   3  18
ATOM     18  C11 UNL     1       2.447  -0.252  -0.490  1.00  0.00     0.117 C   
BRANCH  18  19
ATOM     19  N2  UNL     1       2.704  -1.606   0.144  1.00  0.00     0.249 N   
ATOM     20  H13 UNL     1       3.586  -2.000  -0.195  1.00  0.00     0.199 HD  
ATOM     21  H14 UNL     1       1.958  -2.226  -0.211  1.00  0.00     0.199 HD  
BRANCH  19  22
ATOM     22  C12 UNL     1       2.691  -1.654   1.633  1.00  0.00     0.164 C   
BRANCH  22  23
ATOM     23  C13 UNL     1       1.369  -1.296   2.252  1.00  0.00    -0.002 A   
ATOM     24  C14 UNL     1       1.192  -0.045   2.892  1.00  0.00     0.012 A   
ATOM     25  C18 UNL     1       0.284  -2.187   2.171  1.00  0.00     0.045 A   
ATOM     26  C15 UNL     1      -0.047   0.322   3.427  1.00  0.00     0.037 A   
ATOM     27  C17 UNL     1      -0.923  -1.796   2.712  1.00  0.00     0.109 A   
ATOM     28  C16 UNL     1      -1.086  -0.574   3.317  1.00  0.00     0.108 A   
ATOM     29  O2  UNL     1      -2.065  -2.532   2.712  1.00  0.00    -0.316 OA  
ATOM     30  O3  UNL     1      -2.358  -0.379   3.755  1.00  0.00    -0.316 OA  
ATOM     31  C19 UNL     1      -2.957  -1.653   3.429  1.00  0.00     0.337 C   
ENDBRANCH  22  23
ENDBRANCH  19  22
ENDBRANCH  18  19
BRANCH  18  32
ATOM     32  C20 UNL     1       3.367  -0.100  -1.729  1.00  0.00     0.037 C   
ATOM     33  C21 UNL     1       3.094  -1.114  -2.846  1.00  0.00     0.014 C   
ATOM     34  C22 UNL     1       3.313   1.322  -2.299  1.00  0.00     0.014 C   
ENDBRANCH  18  32
ENDBRANCH   3  18
TORSDOF 9
