REMARK SMILES Cc1cccc([C@@H](CO)n2cc([C@@H]([NH2+]Cc3ccc4c(c3)OCO4)C(C)C)nn2)c1
REMARK SMILES IDX 10 1 11 2 12 3 28 4 29 5 7 7 6 8 2 9 3 10 30 11 4 12 5 13
REMARK SMILES IDX 1 14 8 15 9 16 13 18 14 19 15 22 16 23 17 24 21 25 18 26
REMARK SMILES IDX 20 27 19 28 22 29 24 30 23 31 25 32 26 33 27 34
REMARK H PARENT 11 6 9 17 14 20 14 21
ROOT
ATOM     1   N1  UNL     1       1.077   1.115  -2.339  1.00  0.00    -0.202 N   
ATOM     2   C9  UNL     1       0.147   0.762  -1.397  1.00  0.00     0.046 A   
ATOM     3   C10 UNL     1       0.097   1.839  -0.547  1.00  0.00     0.127 A   
ATOM     4   N3  UNL     1       1.016   2.776  -0.956  1.00  0.00    -0.132 NA  
ATOM     5   N4  UNL     1       1.616   2.322  -2.044  1.00  0.00    -0.075 NA  
ATOM     6   H11 UNL     1      -0.390  -0.177  -1.442  1.00  0.00     0.083 HD  
ENDROOT
BRANCH   1   7
ATOM     7   C7  UNL     1       1.450   0.431  -3.579  1.00  0.00     0.155 C   
BRANCH   7   8
ATOM     8   C6  UNL     1       1.599  -1.071  -3.359  1.00  0.00    -0.023 A   
ATOM     9   C2  UNL     1       0.757  -3.364  -3.466  1.00  0.00    -0.051 A   
ATOM     10  C3  UNL     1       1.964  -3.826  -2.938  1.00  0.00     0.003 A   
ATOM     11  C23 UNL     1       0.587  -1.990  -3.684  1.00  0.00     0.009 A   
ATOM     12  C4  UNL     1       2.975  -2.930  -2.597  1.00  0.00     0.001 A   
ATOM     13  C5  UNL     1       2.793  -1.565  -2.801  1.00  0.00     0.006 A   
ATOM     14  C1  UNL     1      -0.312  -4.339  -3.864  1.00  0.00     0.044 C   
ENDBRANCH   7   8
BRANCH   7  15
ATOM     15  C8  UNL     1       0.536   0.886  -4.738  1.00  0.00     0.185 C   
BRANCH  15  16
ATOM     16  O1  UNL     1      -0.856   0.701  -4.464  1.00  0.00    -0.394 OA  
ATOM     17  H10 UNL     1      -1.349   1.290  -5.071  1.00  0.00     0.210 HD  
ENDBRANCH  15  16
ENDBRANCH   7  15
ENDBRANCH   1   7
BRANCH   3  18
ATOM     18  C11 UNL     1      -0.719   2.090   0.680  1.00  0.00     0.117 C   
BRANCH  18  19
ATOM     19  N2  UNL     1       0.034   3.010   1.621  1.00  0.00     0.249 N   
ATOM     20  H13 UNL     1      -0.605   3.421   2.311  1.00  0.00     0.199 HD  
ATOM     21  H14 UNL     1       0.391   3.778   1.035  1.00  0.00     0.199 HD  
BRANCH  19  22
ATOM     22  C12 UNL     1       1.209   2.411   2.322  1.00  0.00     0.164 C   
BRANCH  22  23
ATOM     23  C13 UNL     1       0.810   1.424   3.383  1.00  0.00    -0.002 A   
ATOM     24  C14 UNL     1       0.885   0.033   3.126  1.00  0.00     0.012 A   
ATOM     25  C18 UNL     1       0.324   1.872   4.623  1.00  0.00     0.045 A   
ATOM     26  C15 UNL     1       0.474  -0.903   4.084  1.00  0.00     0.037 A   
ATOM     27  C17 UNL     1      -0.068   0.923   5.545  1.00  0.00     0.109 A   
ATOM     28  C16 UNL     1      -0.001  -0.426   5.284  1.00  0.00     0.108 A   
ATOM     29  O2  UNL     1      -0.563   1.186   6.780  1.00  0.00    -0.316 OA  
ATOM     30  O3  UNL     1      -0.446  -1.182   6.320  1.00  0.00    -0.316 OA  
ATOM     31  C19 UNL     1      -0.794  -0.153   7.277  1.00  0.00     0.337 C   
ENDBRANCH  22  23
ENDBRANCH  19  22
ENDBRANCH  18  19
BRANCH  18  32
ATOM     32  C20 UNL     1      -2.109   2.716   0.405  1.00  0.00     0.037 C   
ATOM     33  C21 UNL     1      -2.061   4.040  -0.367  1.00  0.00     0.014 C   
ATOM     34  C22 UNL     1      -3.042   1.730  -0.317  1.00  0.00     0.014 C   
ENDBRANCH  18  32
ENDBRANCH   3  18
TORSDOF 9
