REMARK SMILES COc1cc(Cn2cc([C@@H]([NH2+]Cc3ccc4c(c3)OCO4)C(C)C)nn2)ccc1C
REMARK SMILES IDX 7 1 8 2 9 3 25 4 26 5 6 7 5 8 3 9 4 10 29 11 28 12 27 13
REMARK SMILES IDX 30 14 2 15 1 16 10 17 11 18 12 21 13 22 14 23 18 24 15 25
REMARK SMILES IDX 17 26 16 27 19 28 21 29 20 30 22 31 23 32 24 33
REMARK H PARENT 8 6 11 19 11 20
ROOT
ATOM     1   N1  UNL     1      -1.370   1.546  -2.862  1.00  0.00    -0.208 N   
ATOM     2   C6  UNL     1      -1.773   0.380  -2.271  1.00  0.00     0.046 A   
ATOM     3   C7  UNL     1      -2.292   0.783  -1.061  1.00  0.00     0.127 A   
ATOM     4   N3  UNL     1      -2.236   2.151  -0.980  1.00  0.00    -0.132 NA  
ATOM     5   N4  UNL     1      -1.664   2.606  -2.083  1.00  0.00    -0.076 NA  
ATOM     6   H7  UNL     1      -1.604  -0.588  -2.723  1.00  0.00     0.083 HD  
ENDROOT
BRANCH   1   7
ATOM     7   C5  UNL     1      -0.615   1.709  -4.094  1.00  0.00     0.169 C   
BRANCH   7   8
ATOM     8   C4  UNL     1       0.793   1.196  -3.913  1.00  0.00    -0.026 A   
ATOM     9   C2  UNL     1       3.010   1.431  -2.924  1.00  0.00     0.078 A   
ATOM     10  C3  UNL     1       1.720   1.925  -3.148  1.00  0.00     0.039 A   
ATOM     11  C22 UNL     1       3.379   0.181  -3.446  1.00  0.00    -0.021 A   
ATOM     12  C21 UNL     1       2.459  -0.538  -4.222  1.00  0.00     0.006 A   
ATOM     13  C20 UNL     1       1.179  -0.036  -4.456  1.00  0.00     0.006 A   
ATOM     14  C23 UNL     1       4.757  -0.373  -3.211  1.00  0.00     0.047 C   
BRANCH   9  15
ATOM     15  O1  UNL     1       3.954   2.079  -2.171  1.00  0.00    -0.349 OA  
ATOM     16  C1  UNL     1       3.865   3.500  -2.140  1.00  0.00     0.203 C   
ENDBRANCH   9  15
ENDBRANCH   7   8
ENDBRANCH   1   7
BRANCH   3  17
ATOM     17  C8  UNL     1      -2.775  -0.015   0.105  1.00  0.00     0.117 C   
BRANCH  17  18
ATOM     18  N2  UNL     1      -2.419   0.663   1.407  1.00  0.00     0.249 N   
ATOM     19  H9  UNL     1      -2.792   1.620   1.351  1.00  0.00     0.199 HD  
ATOM     20  H10 UNL     1      -2.881   0.198   2.192  1.00  0.00     0.199 HD  
BRANCH  18  21
ATOM     21  C9  UNL     1      -0.958   0.790   1.710  1.00  0.00     0.164 C   
BRANCH  21  22
ATOM     22  C10 UNL     1      -0.247  -0.531   1.795  1.00  0.00    -0.002 A   
ATOM     23  C11 UNL     1       0.717  -0.884   0.819  1.00  0.00     0.012 A   
ATOM     24  C15 UNL     1      -0.549  -1.437   2.827  1.00  0.00     0.045 A   
ATOM     25  C12 UNL     1       1.364  -2.124   0.861  1.00  0.00     0.037 A   
ATOM     26  C14 UNL     1       0.105  -2.652   2.837  1.00  0.00     0.109 A   
ATOM     27  C13 UNL     1       1.034  -2.987   1.883  1.00  0.00     0.108 A   
ATOM     28  O2  UNL     1      -0.078  -3.640   3.753  1.00  0.00    -0.316 OA  
ATOM     29  O3  UNL     1       1.555  -4.227   2.079  1.00  0.00    -0.316 OA  
ATOM     30  C16 UNL     1       0.872  -4.626   3.287  1.00  0.00     0.337 C   
ENDBRANCH  21  22
ENDBRANCH  18  21
ENDBRANCH  17  18
BRANCH  17  31
ATOM     31  C17 UNL     1      -4.300  -0.295   0.040  1.00  0.00     0.037 C   
ATOM     32  C18 UNL     1      -4.711  -1.401   1.020  1.00  0.00     0.014 C   
ATOM     33  C19 UNL     1      -5.178   0.942   0.262  1.00  0.00     0.014 C   
ENDBRANCH  17  31
ENDBRANCH   3  17
TORSDOF 8
