REMARK SMILES Cc1ccc(-n2cc([C@@H]([NH2+]Cc3ccc4c(c3)OCO4)C3CCCC3)nn2)c(N([O-])[O-])c1
REMARK SMILES IDX 6 1 7 2 8 3 26 4 27 5 5 6 2 7 3 8 32 9 4 10 28 11 1 12 29 13
REMARK SMILES IDX 30 14 31 15 9 16 10 17 11 20 12 21 13 22 17 23 14 24 16 25
REMARK SMILES IDX 15 26 18 27 20 28 19 29 21 30 22 31 25 32 23 33 24 34
REMARK H PARENT 10 18 10 19
ROOT
ATOM     1   N1  UNL     1       0.009   2.791  -0.639  1.00  0.00    -0.178 N   
ATOM     2   C6  UNL     1      -0.215   1.429  -0.668  1.00  0.00     0.135 A   
ATOM     3   C7  UNL     1      -1.177   1.198   0.290  1.00  0.00     0.127 A   
ATOM     4   N3  UNL     1      -1.558   2.389   0.833  1.00  0.00    -0.131 NA  
ATOM     5   N4  UNL     1      -0.872   3.348   0.234  1.00  0.00    -0.071 NA  
ENDROOT
BRANCH   1   6
ATOM     6   C5  UNL     1       0.933   3.593  -1.359  1.00  0.00     0.086 A   
ATOM     7   C2  UNL     1       2.627   5.283  -2.887  1.00  0.00    -0.049 A   
ATOM     8   C3  UNL     1       1.486   5.793  -2.256  1.00  0.00     0.005 A   
ATOM     9   C23 UNL     1       2.950   3.934  -2.715  1.00  0.00     0.036 A   
ATOM     10  C4  UNL     1       0.650   4.963  -1.499  1.00  0.00     0.028 A   
ATOM     11  C22 UNL     1       2.107   3.106  -1.954  1.00  0.00     0.141 A   
ATOM     12  C1  UNL     1       3.530   6.193  -3.669  1.00  0.00     0.044 C   
BRANCH  11  13
ATOM     13  N5  UNL     1       2.594   1.765  -1.702  1.00  0.00     0.094 N   
ATOM     14  O3  UNL     1       2.793   1.451  -0.520  1.00  0.00    -0.138 OA  
ATOM     15  O4  UNL     1       2.714   1.017  -2.678  1.00  0.00    -0.138 OA  
ENDBRANCH  11  13
ENDBRANCH   1   6
BRANCH   3  16
ATOM     16  C8  UNL     1      -1.770  -0.077   0.793  1.00  0.00     0.117 C   
BRANCH  16  17
ATOM     17  N2  UNL     1      -1.806  -0.070   2.307  1.00  0.00     0.249 N   
ATOM     18  H8  UNL     1      -2.320   0.776   2.587  1.00  0.00     0.199 HD  
ATOM     19  H9  UNL     1      -2.334  -0.875   2.652  1.00  0.00     0.199 HD  
BRANCH  17  20
ATOM     20  C9  UNL     1      -0.482  -0.045   3.003  1.00  0.00     0.164 C   
BRANCH  20  21
ATOM     21  C10 UNL     1       0.345  -1.271   2.733  1.00  0.00    -0.002 A   
ATOM     22  C11 UNL     1       1.508  -1.182   1.931  1.00  0.00     0.012 A   
ATOM     23  C15 UNL     1      -0.046  -2.519   3.248  1.00  0.00     0.045 A   
ATOM     24  C12 UNL     1       2.266  -2.320   1.634  1.00  0.00     0.037 A   
ATOM     25  C14 UNL     1       0.724  -3.620   2.936  1.00  0.00     0.109 A   
ATOM     26  C13 UNL     1       1.845  -3.525   2.149  1.00  0.00     0.108 A   
ATOM     27  O1  UNL     1       0.482  -4.893   3.345  1.00  0.00    -0.316 OA  
ATOM     28  O2  UNL     1       2.451  -4.726   1.964  1.00  0.00    -0.316 OA  
ATOM     29  C16 UNL     1       1.599  -5.590   2.746  1.00  0.00     0.337 C   
ENDBRANCH  20  21
ENDBRANCH  17  20
ENDBRANCH  16  17
BRANCH  16  30
ATOM     30  C17 UNL     1      -3.208  -0.287   0.275  1.00  0.00     0.043 C   
ATOM     31  C18 UNL     1      -3.293  -0.402  -1.250  1.00  0.00     0.010 C   
ATOM     32  C21 UNL     1      -3.853  -1.604   0.720  1.00  0.00     0.010 C   
ATOM     33  C19 UNL     1      -4.667  -1.008  -1.505  1.00  0.00     0.001 C   
ATOM     34  C20 UNL     1      -4.999  -1.830  -0.262  1.00  0.00     0.001 C   
ENDBRANCH  16  30
ENDBRANCH   3  16
TORSDOF 7
