REMARK SMILES OC[C@@H](c1ccccc1F)n1cc([C@@H]([NH2+]Cc2ccc3c(c2)OCO3)C2CCCC2)nn1
REMARK SMILES IDX 11 1 12 2 13 3 31 4 32 5 3 7 2 8 1 9 4 11 5 12 9 13 6 14
REMARK SMILES IDX 8 15 7 16 10 17 14 18 15 19 16 22 17 23 18 24 22 25 19 26
REMARK SMILES IDX 21 27 20 28 23 29 25 30 24 31 26 32 27 33 30 34 28 35 29 36
REMARK H PARENT 12 6 1 10 15 20 15 21
ROOT
ATOM     1   N1  UNL     1       1.034   1.077   0.303  1.00  0.00    -0.202 N   
ATOM     2   C9  UNL     1       0.683  -0.232   0.503  1.00  0.00     0.046 A   
ATOM     3   C10 UNL     1       1.022  -0.852  -0.678  1.00  0.00     0.127 A   
ATOM     4   N3  UNL     1       1.546   0.076  -1.543  1.00  0.00    -0.132 NA  
ATOM     5   N4  UNL     1       1.550   1.250  -0.934  1.00  0.00    -0.075 NA  
ATOM     6   H9  UNL     1       0.238  -0.575   1.427  1.00  0.00     0.083 HD  
ENDROOT
BRANCH   1   7
ATOM     7   C2  UNL     1       0.904   2.192   1.242  1.00  0.00     0.158 C   
BRANCH   7   8
ATOM     8   C1  UNL     1       2.280   2.782   1.601  1.00  0.00     0.186 C   
BRANCH   8   9
ATOM     9   O1  UNL     1       3.010   1.865   2.421  1.00  0.00    -0.394 OA  
ATOM     10  H1  UNL     1       3.852   2.299   2.656  1.00  0.00     0.210 HD  
ENDBRANCH   8   9
ENDBRANCH   7   8
BRANCH   7  11
ATOM     11  C3  UNL     1      -0.094   3.206   0.717  1.00  0.00     0.013 A   
ATOM     12  C4  UNL     1       0.256   4.218  -0.191  1.00  0.00     0.009 A   
ATOM     13  C8  UNL     1      -1.431   3.122   1.125  1.00  0.00     0.128 A   
ATOM     14  C5  UNL     1      -0.703   5.125  -0.650  1.00  0.00     0.001 A   
ATOM     15  C7  UNL     1      -2.389   4.026   0.676  1.00  0.00     0.039 A   
ATOM     16  C6  UNL     1      -2.024   5.032  -0.214  1.00  0.00     0.003 A   
ATOM     17  F1  UNL     1      -1.809   2.147   1.966  1.00  0.00    -0.207 F   
ENDBRANCH   7  11
ENDBRANCH   1   7
BRANCH   3  18
ATOM     18  C11 UNL     1       0.860  -2.261  -1.142  1.00  0.00     0.117 C   
BRANCH  18  19
ATOM     19  N2  UNL     1       0.523  -2.261  -2.618  1.00  0.00     0.249 N   
ATOM     20  H11 UNL     1       1.048  -2.985  -3.116  1.00  0.00     0.199 HD  
ATOM     21  H12 UNL     1       0.877  -1.361  -2.981  1.00  0.00     0.199 HD  
BRANCH  19  22
ATOM     22  C12 UNL     1      -0.920  -2.372  -2.972  1.00  0.00     0.164 C   
BRANCH  22  23
ATOM     23  C13 UNL     1      -1.799  -1.321  -2.353  1.00  0.00    -0.002 A   
ATOM     24  C14 UNL     1      -1.711   0.031  -2.765  1.00  0.00     0.012 A   
ATOM     25  C18 UNL     1      -2.699  -1.672  -1.332  1.00  0.00     0.045 A   
ATOM     26  C15 UNL     1      -2.500   1.020  -2.166  1.00  0.00     0.037 A   
ATOM     27  C17 UNL     1      -3.462  -0.674  -0.763  1.00  0.00     0.109 A   
ATOM     28  C16 UNL     1      -3.369   0.634  -1.170  1.00  0.00     0.108 A   
ATOM     29  O2  UNL     1      -4.365  -0.845   0.237  1.00  0.00    -0.316 OA  
ATOM     30  O3  UNL     1      -4.209   1.450  -0.482  1.00  0.00    -0.316 OA  
ATOM     31  C19 UNL     1      -4.851   0.506   0.401  1.00  0.00     0.337 C   
ENDBRANCH  22  23
ENDBRANCH  19  22
ENDBRANCH  18  19
BRANCH  18  32
ATOM     32  C20 UNL     1       2.126  -3.100  -0.876  1.00  0.00     0.043 C   
ATOM     33  C21 UNL     1       3.392  -2.672  -1.632  1.00  0.00     0.010 C   
ATOM     34  C24 UNL     1       1.966  -4.601  -1.189  1.00  0.00     0.010 C   
ATOM     35  C22 UNL     1       4.257  -3.921  -1.591  1.00  0.00     0.001 C   
ATOM     36  C23 UNL     1       3.263  -5.037  -1.869  1.00  0.00     0.001 C   
ENDBRANCH  18  32
ENDBRANCH   3  18
TORSDOF 9
