REMARK SMILES OC[C@H](c1ccccc1F)n1cc([C@@H]([NH2+]Cc2ccc3c(c2)OCO3)C2CCCC2)nn1
REMARK SMILES IDX 11 1 12 2 13 3 31 4 32 5 3 7 2 8 1 9 4 11 5 12 9 13 6 14
REMARK SMILES IDX 8 15 7 16 10 17 14 18 15 19 16 22 17 23 18 24 22 25 19 26
REMARK SMILES IDX 21 27 20 28 23 29 25 30 24 31 26 32 27 33 30 34 28 35 29 36
REMARK H PARENT 12 6 1 10 15 20 15 21
ROOT
ATOM     1   N1  UNL     1      -1.018   2.467   0.069  1.00  0.00    -0.202 N   
ATOM     2   C9  UNL     1      -0.951   1.171   0.504  1.00  0.00     0.046 A   
ATOM     3   C10 UNL     1       0.360   1.013   0.887  1.00  0.00     0.127 A   
ATOM     4   N3  UNL     1       1.027   2.199   0.722  1.00  0.00    -0.132 NA  
ATOM     5   N4  UNL     1       0.178   3.079   0.215  1.00  0.00    -0.075 NA  
ATOM     6   H9  UNL     1      -1.804   0.506   0.472  1.00  0.00     0.083 HD  
ENDROOT
BRANCH   1   7
ATOM     7   C2  UNL     1      -2.146   3.185  -0.532  1.00  0.00     0.158 C   
BRANCH   7   8
ATOM     8   C1  UNL     1      -2.970   3.876   0.572  1.00  0.00     0.186 C   
BRANCH   8   9
ATOM     9   O1  UNL     1      -3.516   2.946   1.510  1.00  0.00    -0.394 OA  
ATOM     10  H1  UNL     1      -3.990   3.467   2.185  1.00  0.00     0.210 HD  
ENDBRANCH   8   9
ENDBRANCH   7   8
BRANCH   7  11
ATOM     11  C3  UNL     1      -2.895   2.304  -1.525  1.00  0.00     0.013 A   
ATOM     12  C4  UNL     1      -4.230   1.906  -1.362  1.00  0.00     0.009 A   
ATOM     13  C8  UNL     1      -2.219   1.852  -2.670  1.00  0.00     0.128 A   
ATOM     14  C5  UNL     1      -4.854   1.087  -2.310  1.00  0.00     0.001 A   
ATOM     15  C7  UNL     1      -2.832   1.035  -3.615  1.00  0.00     0.039 A   
ATOM     16  C6  UNL     1      -4.157   0.651  -3.434  1.00  0.00     0.003 A   
ATOM     17  F1  UNL     1      -0.935   2.192  -2.858  1.00  0.00    -0.207 F   
ENDBRANCH   7  11
ENDBRANCH   1   7
BRANCH   3  18
ATOM     18  C11 UNL     1       1.099  -0.199   1.344  1.00  0.00     0.117 C   
BRANCH  18  19
ATOM     19  N2  UNL     1       2.474  -0.251   0.706  1.00  0.00     0.249 N   
ATOM     20  H11 UNL     1       2.959   0.609   0.996  1.00  0.00     0.199 HD  
ATOM     21  H12 UNL     1       3.002  -1.044   1.072  1.00  0.00     0.199 HD  
BRANCH  19  22
ATOM     22  C12 UNL     1       2.520  -0.292  -0.789  1.00  0.00     0.164 C   
BRANCH  22  23
ATOM     23  C13 UNL     1       1.785  -1.462  -1.382  1.00  0.00    -0.002 A   
ATOM     24  C14 UNL     1       2.263  -2.782  -1.207  1.00  0.00     0.012 A   
ATOM     25  C18 UNL     1       0.595  -1.246  -2.101  1.00  0.00     0.045 A   
ATOM     26  C15 UNL     1       1.562  -3.874  -1.730  1.00  0.00     0.037 A   
ATOM     27  C17 UNL     1      -0.069  -2.344  -2.606  1.00  0.00     0.109 A   
ATOM     28  C16 UNL     1       0.399  -3.621  -2.423  1.00  0.00     0.108 A   
ATOM     29  O2  UNL     1      -1.224  -2.310  -3.321  1.00  0.00    -0.316 OA  
ATOM     30  O3  UNL     1      -0.405  -4.554  -2.996  1.00  0.00    -0.316 OA  
ATOM     31  C19 UNL     1      -1.418  -3.716  -3.594  1.00  0.00     0.337 C   
ENDBRANCH  22  23
ENDBRANCH  19  22
ENDBRANCH  18  19
BRANCH  18  32
ATOM     32  C20 UNL     1       1.274  -0.223   2.876  1.00  0.00     0.043 C   
ATOM     33  C21 UNL     1       1.999  -1.460   3.413  1.00  0.00     0.010 C   
ATOM     34  C24 UNL     1      -0.059  -0.271   3.638  1.00  0.00     0.010 C   
ATOM     35  C22 UNL     1       1.683  -1.429   4.900  1.00  0.00     0.001 C   
ATOM     36  C23 UNL     1       0.247  -0.925   4.986  1.00  0.00     0.001 C   
ENDBRANCH  18  32
ENDBRANCH   3  18
TORSDOF 9
