REMARK SMILES CC(C)[C@H]([NH2+]Cc1ccc2c(c1)OCO2)c1cn([C@@H](CO)c2ccccc2O)nn1
REMARK SMILES IDX 16 1 17 2 18 3 29 4 30 5 4 7 2 8 1 9 3 10 5 11 6 14 7 15
REMARK SMILES IDX 8 16 12 17 9 18 11 19 10 20 13 21 15 22 14 23 19 24 20 25
REMARK SMILES IDX 21 26 22 28 23 29 27 30 24 31 26 32 25 33 28 34
REMARK H PARENT 17 6 5 12 5 13 21 27 28 35
ROOT
ATOM     1   C13 UNL     1       0.851   0.453  -1.323  1.00  0.00     0.127 A   
ATOM     2   C14 UNL     1       1.018  -0.794  -0.768  1.00  0.00     0.046 A   
ATOM     3   N2  UNL     1       2.134  -0.660   0.022  1.00  0.00    -0.202 N   
ATOM     4   N3  UNL     1       2.704   0.547  -0.180  1.00  0.00    -0.075 NA  
ATOM     5   N4  UNL     1       1.906   1.250  -0.967  1.00  0.00    -0.132 NA  
ATOM     6   H18 UNL     1       0.416  -1.692  -0.771  1.00  0.00     0.083 HD  
ENDROOT
BRANCH   1   7
ATOM     7   C4  UNL     1      -0.303   1.032  -2.070  1.00  0.00     0.117 C   
BRANCH   7   8
ATOM     8   C2  UNL     1      -0.057   1.102  -3.600  1.00  0.00     0.037 C   
ATOM     9   C1  UNL     1       0.997   2.129  -4.029  1.00  0.00     0.014 C   
ATOM     10  C3  UNL     1      -1.361   1.360  -4.365  1.00  0.00     0.014 C   
ENDBRANCH   7   8
BRANCH   7  11
ATOM     11  N1  UNL     1      -0.635   2.401  -1.522  1.00  0.00     0.249 N   
ATOM     12  H9  UNL     1      -1.291   2.888  -2.136  1.00  0.00     0.199 HD  
ATOM     13  H10 UNL     1       0.246   2.932  -1.521  1.00  0.00     0.199 HD  
BRANCH  11  14
ATOM     14  C5  UNL     1      -1.159   2.434  -0.119  1.00  0.00     0.164 C   
BRANCH  14  15
ATOM     15  C6  UNL     1      -2.507   1.784   0.021  1.00  0.00    -0.002 A   
ATOM     16  C7  UNL     1      -3.662   2.396  -0.521  1.00  0.00     0.012 A   
ATOM     17  C11 UNL     1      -2.622   0.543   0.673  1.00  0.00     0.045 A   
ATOM     18  C8  UNL     1      -4.914   1.778  -0.423  1.00  0.00     0.037 A   
ATOM     19  C10 UNL     1      -3.870  -0.039   0.751  1.00  0.00     0.109 A   
ATOM     20  C9  UNL     1      -4.983   0.561   0.217  1.00  0.00     0.108 A   
ATOM     21  O1  UNL     1      -4.152  -1.232   1.336  1.00  0.00    -0.316 OA  
ATOM     22  O2  UNL     1      -6.108  -0.178   0.401  1.00  0.00    -0.316 OA  
ATOM     23  C12 UNL     1      -5.582  -1.302   1.139  1.00  0.00     0.337 C   
ENDBRANCH  14  15
ENDBRANCH  11  14
ENDBRANCH   7  11
ENDBRANCH   1   7
BRANCH   3  24
ATOM     24  C15 UNL     1       2.678  -1.619   0.989  1.00  0.00     0.158 C   
BRANCH  24  25
ATOM     25  C16 UNL     1       3.729  -1.026   1.958  1.00  0.00     0.186 C   
BRANCH  25  26
ATOM     26  O3  UNL     1       3.173  -0.040   2.840  1.00  0.00    -0.394 OA  
ATOM     27  H22 UNL     1       3.922   0.309   3.364  1.00  0.00     0.210 HD  
ENDBRANCH  25  26
ENDBRANCH  24  25
BRANCH  24  28
ATOM     28  C17 UNL     1       1.559  -2.328   1.746  1.00  0.00     0.007 A   
ATOM     29  C18 UNL     1       1.477  -3.731   1.694  1.00  0.00     0.008 A   
ATOM     30  C22 UNL     1       0.569  -1.638   2.465  1.00  0.00     0.076 A   
ATOM     31  C19 UNL     1       0.428  -4.408   2.321  1.00  0.00     0.001 A   
ATOM     32  C21 UNL     1      -0.488  -2.308   3.074  1.00  0.00     0.033 A   
ATOM     33  C20 UNL     1      -0.557  -3.697   3.004  1.00  0.00     0.003 A   
BRANCH  30  34
ATOM     34  O4  UNL     1       0.581  -0.275   2.581  1.00  0.00    -0.361 OA  
ATOM     35  H27 UNL     1       1.514  -0.015   2.771  1.00  0.00     0.218 HD  
ENDBRANCH  30  34
ENDBRANCH  24  28
ENDBRANCH   3  24
TORSDOF 10
