REMARK SMILES CC(C)[C@H]([NH2+]Cc1ccc2c(c1)OCO2)c1cn([C@H](CO)c2ccccc2O)nn1
REMARK SMILES IDX 16 1 17 2 18 3 29 4 30 5 4 7 2 8 1 9 3 10 5 11 6 14 7 15
REMARK SMILES IDX 8 16 12 17 9 18 11 19 10 20 13 21 15 22 14 23 19 24 20 25
REMARK SMILES IDX 21 26 22 28 23 29 27 30 24 31 26 32 25 33 28 34
REMARK H PARENT 17 6 5 12 5 13 21 27 28 35
ROOT
ATOM     1   C13 UNL     1      -0.991   0.270  -0.313  1.00  0.00     0.127 A   
ATOM     2   C14 UNL     1      -2.017  -0.399  -0.938  1.00  0.00     0.046 A   
ATOM     3   N2  UNL     1      -1.383  -1.313  -1.738  1.00  0.00    -0.202 N   
ATOM     4   N3  UNL     1      -0.041  -1.213  -1.602  1.00  0.00    -0.075 NA  
ATOM     5   N4  UNL     1       0.209  -0.243  -0.739  1.00  0.00    -0.132 NA  
ATOM     6   H18 UNL     1      -3.096  -0.322  -0.900  1.00  0.00     0.083 HD  
ENDROOT
BRANCH   1   7
ATOM     7   C4  UNL     1      -1.003   1.370   0.699  1.00  0.00     0.117 C   
BRANCH   7   8
ATOM     8   C2  UNL     1      -1.274   2.755   0.055  1.00  0.00     0.037 C   
ATOM     9   C1  UNL     1      -1.614   3.814   1.112  1.00  0.00     0.014 C   
ATOM     10  C3  UNL     1      -0.134   3.261  -0.837  1.00  0.00     0.014 C   
ENDBRANCH   7   8
BRANCH   7  11
ATOM     11  N1  UNL     1       0.297   1.394   1.456  1.00  0.00     0.249 N   
ATOM     12  H9  UNL     1       1.041   1.242   0.757  1.00  0.00     0.199 HD  
ATOM     13  H10 UNL     1       0.486   2.306   1.881  1.00  0.00     0.199 HD  
BRANCH  11  14
ATOM     14  C5  UNL     1       0.454   0.331   2.487  1.00  0.00     0.164 C   
BRANCH  14  15
ATOM     15  C6  UNL     1       1.832   0.389   3.084  1.00  0.00    -0.002 A   
ATOM     16  C7  UNL     1       2.094   1.203   4.211  1.00  0.00     0.012 A   
ATOM     17  C11 UNL     1       2.886  -0.316   2.477  1.00  0.00     0.045 A   
ATOM     18  C8  UNL     1       3.388   1.311   4.733  1.00  0.00     0.037 A   
ATOM     19  C10 UNL     1       4.149  -0.190   3.018  1.00  0.00     0.109 A   
ATOM     20  C9  UNL     1       4.394   0.603   4.113  1.00  0.00     0.108 A   
ATOM     21  O1  UNL     1       5.272  -0.797   2.554  1.00  0.00    -0.316 OA  
ATOM     22  O2  UNL     1       5.703   0.595   4.476  1.00  0.00    -0.316 OA  
ATOM     23  C12 UNL     1       6.255  -0.312   3.496  1.00  0.00     0.337 C   
ENDBRANCH  14  15
ENDBRANCH  11  14
ENDBRANCH   7  11
ENDBRANCH   1   7
BRANCH   3  24
ATOM     24  C15 UNL     1      -1.998  -2.303  -2.623  1.00  0.00     0.158 C   
BRANCH  24  25
ATOM     25  C16 UNL     1      -1.505  -3.730  -2.320  1.00  0.00     0.186 C   
BRANCH  25  26
ATOM     26  O3  UNL     1      -2.010  -4.176  -1.056  1.00  0.00    -0.394 OA  
ATOM     27  H22 UNL     1      -1.773  -5.119  -0.977  1.00  0.00     0.210 HD  
ENDBRANCH  25  26
ENDBRANCH  24  25
BRANCH  24  28
ATOM     28  C17 UNL     1      -1.830  -1.875  -4.073  1.00  0.00     0.007 A   
ATOM     29  C18 UNL     1      -0.664  -2.174  -4.799  1.00  0.00     0.008 A   
ATOM     30  C22 UNL     1      -2.836  -1.141  -4.719  1.00  0.00     0.076 A   
ATOM     31  C19 UNL     1      -0.528  -1.777  -6.131  1.00  0.00     0.001 A   
ATOM     32  C21 UNL     1      -2.706  -0.744  -6.050  1.00  0.00     0.033 A   
ATOM     33  C20 UNL     1      -1.551  -1.069  -6.757  1.00  0.00     0.003 A   
BRANCH  30  34
ATOM     34  O4  UNL     1      -3.961  -0.805  -4.018  1.00  0.00    -0.361 OA  
ATOM     35  H27 UNL     1      -4.593  -0.390  -4.633  1.00  0.00     0.218 HD  
ENDBRANCH  30  34
ENDBRANCH  24  28
ENDBRANCH   3  24
TORSDOF 10
