REMARK SMILES Cc1ccnc([C@H](CO)n2cc([C@@H]([NH2+]Cc3ccc4c(c3)OCO4)C3CCCC3)nn2)c1
REMARK SMILES IDX 10 1 11 2 12 3 30 4 31 5 7 7 6 8 2 9 3 10 32 11 4 12 5 13
REMARK SMILES IDX 1 14 8 15 9 16 13 18 14 19 15 22 16 23 17 24 21 25 18 26
REMARK SMILES IDX 20 27 19 28 22 29 24 30 23 31 25 32 26 33 29 34 27 35 28 36
REMARK H PARENT 11 6 9 17 14 20 14 21
ROOT
ATOM     1   N2  UNL     1      -0.334   2.012   1.496  1.00  0.00    -0.201 N   
ATOM     2   C8  UNL     1       0.815   1.290   1.301  1.00  0.00     0.046 A   
ATOM     3   C9  UNL     1       0.385   0.109   0.741  1.00  0.00     0.127 A   
ATOM     4   N4  UNL     1      -0.982   0.140   0.629  1.00  0.00    -0.132 NA  
ATOM     5   N5  UNL     1      -1.410   1.301   1.098  1.00  0.00    -0.075 NA  
ATOM     6   H10 UNL     1       1.789   1.675   1.573  1.00  0.00     0.083 HD  
ENDROOT
BRANCH   1   7
ATOM     7   C6  UNL     1      -0.506   3.349   2.050  1.00  0.00     0.174 C   
BRANCH   7   8
ATOM     8   C5  UNL     1       0.080   4.383   1.105  1.00  0.00     0.065 A   
ATOM     9   C2  UNL     1      -0.131   5.805  -0.826  1.00  0.00    -0.048 A   
ATOM     10  C3  UNL     1       1.173   6.240  -0.596  1.00  0.00     0.023 A   
ATOM     11  C24 UNL     1      -0.685   4.870   0.047  1.00  0.00     0.029 A   
ATOM     12  C4  UNL     1       1.872   5.706   0.470  1.00  0.00     0.111 A   
ATOM     13  N1  UNL     1       1.363   4.785   1.317  1.00  0.00    -0.259 NA  
ATOM     14  C1  UNL     1      -0.942   6.382  -1.948  1.00  0.00     0.044 C   
ENDBRANCH   7   8
BRANCH   7  15
ATOM     15  C7  UNL     1       0.022   3.461   3.492  1.00  0.00     0.187 C   
BRANCH  15  16
ATOM     16  O1  UNL     1       1.433   3.263   3.603  1.00  0.00    -0.394 OA  
ATOM     17  H9  UNL     1       1.844   3.960   3.039  1.00  0.00     0.210 HD  
ENDBRANCH  15  16
ENDBRANCH   7  15
ENDBRANCH   1   7
BRANCH   3  18
ATOM     18  C10 UNL     1       1.135  -1.119   0.338  1.00  0.00     0.117 C   
BRANCH  18  19
ATOM     19  N3  UNL     1       0.220  -2.319   0.389  1.00  0.00     0.249 N   
ATOM     20  H12 UNL     1      -0.659  -2.037  -0.071  1.00  0.00     0.199 HD  
ATOM     21  H13 UNL     1       0.595  -3.101  -0.157  1.00  0.00     0.199 HD  
BRANCH  19  22
ATOM     22  C11 UNL     1      -0.130  -2.804   1.753  1.00  0.00     0.164 C   
BRANCH  22  23
ATOM     23  C12 UNL     1      -1.122  -3.931   1.665  1.00  0.00    -0.002 A   
ATOM     24  C13 UNL     1      -0.687  -5.277   1.696  1.00  0.00     0.012 A   
ATOM     25  C17 UNL     1      -2.489  -3.646   1.504  1.00  0.00     0.045 A   
ATOM     26  C14 UNL     1      -1.602  -6.330   1.575  1.00  0.00     0.037 A   
ATOM     27  C16 UNL     1      -3.363  -4.707   1.391  1.00  0.00     0.109 A   
ATOM     28  C15 UNL     1      -2.933  -6.010   1.424  1.00  0.00     0.108 A   
ATOM     29  O2  UNL     1      -4.710  -4.606   1.244  1.00  0.00    -0.316 OA  
ATOM     30  O3  UNL     1      -3.954  -6.897   1.297  1.00  0.00    -0.316 OA  
ATOM     31  C18 UNL     1      -5.083  -6.001   1.189  1.00  0.00     0.337 C   
ENDBRANCH  22  23
ENDBRANCH  19  22
ENDBRANCH  18  19
BRANCH  18  32
ATOM     32  C19 UNL     1       1.748  -1.067  -1.074  1.00  0.00     0.043 C   
ATOM     33  C20 UNL     1       0.770  -0.846  -2.235  1.00  0.00     0.010 C   
ATOM     34  C23 UNL     1       2.798   0.024  -1.294  1.00  0.00     0.010 C   
ATOM     35  C21 UNL     1       1.608  -0.258  -3.373  1.00  0.00     0.001 C   
ATOM     36  C22 UNL     1       3.002  -0.017  -2.803  1.00  0.00     0.001 C   
ENDBRANCH  18  32
ENDBRANCH   3  18
TORSDOF 9
