REMARK SMILES Cc1ccnc([C@@H](CO)n2cc([C@@H]([NH2+]Cc3ccc4c(c3)OCO4)C3CCCC3)nn2)c1
REMARK SMILES IDX 10 1 11 2 12 3 30 4 31 5 7 7 6 8 2 9 3 10 32 11 4 12 5 13
REMARK SMILES IDX 1 14 8 15 9 16 13 18 14 19 15 22 16 23 17 24 21 25 18 26
REMARK SMILES IDX 20 27 19 28 22 29 24 30 23 31 25 32 26 33 29 34 27 35 28 36
REMARK H PARENT 11 6 9 17 14 20 14 21
ROOT
ATOM     1   N2  UNL     1       1.507  -0.449   1.665  1.00  0.00    -0.201 N   
ATOM     2   C8  UNL     1       0.152  -0.249   1.686  1.00  0.00     0.046 A   
ATOM     3   C9  UNL     1      -0.341  -1.159   0.780  1.00  0.00     0.127 A   
ATOM     4   N4  UNL     1       0.706  -1.845   0.219  1.00  0.00    -0.132 NA  
ATOM     5   N5  UNL     1       1.829  -1.395   0.755  1.00  0.00    -0.075 NA  
ATOM     6   H10 UNL     1      -0.311   0.476   2.343  1.00  0.00     0.083 HD  
ENDROOT
BRANCH   1   7
ATOM     7   C6  UNL     1       2.551   0.209   2.443  1.00  0.00     0.174 C   
BRANCH   7   8
ATOM     8   C5  UNL     1       2.595   1.689   2.105  1.00  0.00     0.065 A   
ATOM     9   C2  UNL     1       3.331   3.494   0.682  1.00  0.00    -0.048 A   
ATOM     10  C3  UNL     1       2.632   4.375   1.507  1.00  0.00     0.023 A   
ATOM     11  C24 UNL     1       3.318   2.131   0.995  1.00  0.00     0.029 A   
ATOM     12  C4  UNL     1       1.931   3.860   2.584  1.00  0.00     0.111 A   
ATOM     13  N1  UNL     1       1.886   2.543   2.893  1.00  0.00    -0.259 NA  
ATOM     14  C1  UNL     1       4.136   4.006  -0.476  1.00  0.00     0.044 C   
ENDBRANCH   7   8
BRANCH   7  15
ATOM     15  C7  UNL     1       2.419  -0.080   3.950  1.00  0.00     0.187 C   
BRANCH  15  16
ATOM     16  O1  UNL     1       1.221   0.443   4.530  1.00  0.00    -0.394 OA  
ATOM     17  H9  UNL     1       1.250   1.412   4.368  1.00  0.00     0.210 HD  
ENDBRANCH  15  16
ENDBRANCH   7  15
ENDBRANCH   1   7
BRANCH   3  18
ATOM     18  C10 UNL     1      -1.743  -1.455   0.355  1.00  0.00     0.117 C   
BRANCH  18  19
ATOM     19  N3  UNL     1      -1.752  -2.111  -0.999  1.00  0.00     0.249 N   
ATOM     20  H12 UNL     1      -1.008  -2.824  -0.985  1.00  0.00     0.199 HD  
ATOM     21  H13 UNL     1      -2.626  -2.611  -1.183  1.00  0.00     0.199 HD  
BRANCH  19  22
ATOM     22  C11 UNL     1      -1.465  -1.207  -2.147  1.00  0.00     0.164 C   
BRANCH  22  23
ATOM     23  C12 UNL     1      -1.486  -1.979  -3.436  1.00  0.00    -0.002 A   
ATOM     24  C13 UNL     1      -2.637  -1.972  -4.258  1.00  0.00     0.012 A   
ATOM     25  C17 UNL     1      -0.377  -2.761  -3.803  1.00  0.00     0.045 A   
ATOM     26  C14 UNL     1      -2.683  -2.726  -5.436  1.00  0.00     0.037 A   
ATOM     27  C16 UNL     1      -0.456  -3.496  -4.967  1.00  0.00     0.109 A   
ATOM     28  C15 UNL     1      -1.576  -3.479  -5.762  1.00  0.00     0.108 A   
ATOM     29  O2  UNL     1       0.518  -4.305  -5.459  1.00  0.00    -0.316 OA  
ATOM     30  O3  UNL     1      -1.446  -4.270  -6.858  1.00  0.00    -0.316 OA  
ATOM     31  C18 UNL     1      -0.107  -4.780  -6.674  1.00  0.00     0.337 C   
ENDBRANCH  22  23
ENDBRANCH  19  22
ENDBRANCH  18  19
BRANCH  18  32
ATOM     32  C19 UNL     1      -2.474  -2.331   1.393  1.00  0.00     0.043 C   
ATOM     33  C20 UNL     1      -2.018  -3.789   1.497  1.00  0.00     0.010 C   
ATOM     34  C23 UNL     1      -3.979  -2.483   1.160  1.00  0.00     0.010 C   
ATOM     35  C21 UNL     1      -3.132  -4.474   2.286  1.00  0.00     0.001 C   
ATOM     36  C22 UNL     1      -4.379  -3.606   2.111  1.00  0.00     0.001 C   
ENDBRANCH  18  32
ENDBRANCH   3  18
TORSDOF 9
