REMARK SMILES CC(C)C[C@H]([NH2+]Cc1ccc2c(c1)OCO2)c1cn([C@@H](CO)c2ccc(Cl)nc2)nn1
REMARK SMILES IDX 17 1 18 2 19 3 30 4 31 5 5 7 4 8 2 9 1 10 3 11 6 12 7 15
REMARK SMILES IDX 8 16 9 17 13 18 10 19 12 20 11 21 14 22 16 23 15 24 20 25
REMARK SMILES IDX 21 26 22 27 23 29 24 30 29 31 25 32 28 33 26 34 27 35
REMARK H PARENT 18 6 6 13 6 14 22 28
ROOT
ATOM     1   C14 UNL     1       1.316  -0.147  -1.456  1.00  0.00     0.127 A   
ATOM     2   C15 UNL     1       0.634   0.999  -1.791  1.00  0.00     0.046 A   
ATOM     3   N2  UNL     1       1.458   1.636  -2.680  1.00  0.00    -0.202 N   
ATOM     4   N4  UNL     1       2.558   0.891  -2.920  1.00  0.00    -0.075 NA  
ATOM     5   N5  UNL     1       2.485  -0.198  -2.171  1.00  0.00    -0.132 NA  
ATOM     6   H20 UNL     1      -0.316   1.415  -1.482  1.00  0.00     0.083 HD  
ENDROOT
BRANCH   1   7
ATOM     7   C5  UNL     1       0.960  -1.269  -0.532  1.00  0.00     0.114 C   
BRANCH   7   8
ATOM     8   C4  UNL     1       1.561  -1.082   0.874  1.00  0.00     0.064 C   
BRANCH   8   9
ATOM     9   C2  UNL     1       1.045   0.150   1.650  1.00  0.00    -0.012 C   
ATOM     10  C1  UNL     1       1.774   0.255   2.993  1.00  0.00     0.007 C   
ATOM     11  C3  UNL     1      -0.465   0.096   1.888  1.00  0.00     0.007 C   
ENDBRANCH   8   9
ENDBRANCH   7   8
BRANCH   7  12
ATOM     12  N1  UNL     1       1.500  -2.548  -1.139  1.00  0.00     0.249 N   
ATOM     13  H11 UNL     1       1.217  -2.539  -2.127  1.00  0.00     0.199 HD  
ATOM     14  H12 UNL     1       2.525  -2.459  -1.175  1.00  0.00     0.199 HD  
BRANCH  12  15
ATOM     15  C6  UNL     1       1.107  -3.851  -0.546  1.00  0.00     0.164 C   
BRANCH  15  16
ATOM     16  C7  UNL     1      -0.377  -4.084  -0.562  1.00  0.00    -0.002 A   
ATOM     17  C8  UNL     1      -1.038  -4.410  -1.771  1.00  0.00     0.012 A   
ATOM     18  C12 UNL     1      -1.128  -3.941   0.618  1.00  0.00     0.045 A   
ATOM     19  C9  UNL     1      -2.426  -4.587  -1.807  1.00  0.00     0.037 A   
ATOM     20  C11 UNL     1      -2.493  -4.119   0.547  1.00  0.00     0.109 A   
ATOM     21  C10 UNL     1      -3.125  -4.432  -0.630  1.00  0.00     0.108 A   
ATOM     22  O1  UNL     1      -3.360  -4.007   1.588  1.00  0.00    -0.316 OA  
ATOM     23  O2  UNL     1      -4.468  -4.560  -0.480  1.00  0.00    -0.316 OA  
ATOM     24  C13 UNL     1      -4.613  -4.316   0.936  1.00  0.00     0.337 C   
ENDBRANCH  15  16
ENDBRANCH  12  15
ENDBRANCH   7  12
ENDBRANCH   1   7
BRANCH   3  25
ATOM     25  C16 UNL     1       1.299   2.944  -3.316  1.00  0.00     0.157 C   
BRANCH  25  26
ATOM     26  C17 UNL     1       0.253   2.904  -4.448  1.00  0.00     0.186 C   
BRANCH  26  27
ATOM     27  O3  UNL     1      -1.034   2.478  -4.002  1.00  0.00    -0.394 OA  
ATOM     28  H24 UNL     1      -1.641   2.552  -4.764  1.00  0.00     0.210 HD  
ENDBRANCH  26  27
ENDBRANCH  25  26
BRANCH  25  29
ATOM     29  C18 UNL     1       1.132   4.026  -2.264  1.00  0.00    -0.005 A   
ATOM     30  C19 UNL     1       2.264   4.593  -1.655  1.00  0.00     0.010 A   
ATOM     31  C22 UNL     1      -0.110   4.472  -1.818  1.00  0.00     0.118 A   
ATOM     32  C20 UNL     1       2.115   5.561  -0.664  1.00  0.00     0.041 A   
ATOM     33  N3  UNL     1      -0.283   5.401  -0.851  1.00  0.00    -0.244 NA  
ATOM     34  C21 UNL     1       0.831   5.925  -0.305  1.00  0.00     0.129 A   
ATOM     35  CL1 UNL     1       0.553   7.093   0.916  1.00  0.00    -0.062 Cl  
ENDBRANCH  25  29
ENDBRANCH   3  25
TORSDOF 10
