REMARK SMILES CC(C)C[C@H]([NH2+]Cc1ccc2c(c1)OCO2)c1cn([C@H](CO)c2ccc(Cl)nc2)nn1
REMARK SMILES IDX 17 1 18 2 19 3 30 4 31 5 5 7 4 8 2 9 1 10 3 11 6 12 7 15
REMARK SMILES IDX 8 16 9 17 13 18 10 19 12 20 11 21 14 22 16 23 15 24 20 25
REMARK SMILES IDX 21 26 22 27 23 29 24 30 29 31 25 32 28 33 26 34 27 35
REMARK H PARENT 18 6 6 13 6 14 22 28
ROOT
ATOM     1   C14 UNL     1       1.491  -0.688  -0.483  1.00  0.00     0.127 A   
ATOM     2   C15 UNL     1       0.395  -0.682  -1.315  1.00  0.00     0.046 A   
ATOM     3   N2  UNL     1       0.366  -1.946  -1.844  1.00  0.00    -0.202 N   
ATOM     4   N4  UNL     1       1.393  -2.680  -1.367  1.00  0.00    -0.075 NA  
ATOM     5   N5  UNL     1       2.092  -1.918  -0.540  1.00  0.00    -0.132 NA  
ATOM     6   H20 UNL     1      -0.365   0.054  -1.538  1.00  0.00     0.083 HD  
ENDROOT
BRANCH   1   7
ATOM     7   C5  UNL     1       1.972   0.336   0.483  1.00  0.00     0.114 C   
BRANCH   7   8
ATOM     8   C4  UNL     1       3.353   0.924   0.130  1.00  0.00     0.064 C   
BRANCH   8   9
ATOM     9   C2  UNL     1       3.452   1.833  -1.116  1.00  0.00    -0.012 C   
ATOM     10  C1  UNL     1       3.456   1.062  -2.436  1.00  0.00     0.007 C   
ATOM     11  C3  UNL     1       2.395   2.935  -1.136  1.00  0.00     0.007 C   
ENDBRANCH   8   9
ENDBRANCH   7   8
BRANCH   7  12
ATOM     12  N1  UNL     1       2.113  -0.288   1.865  1.00  0.00     0.249 N   
ATOM     13  H11 UNL     1       2.789  -1.058   1.769  1.00  0.00     0.199 HD  
ATOM     14  H12 UNL     1       2.518   0.395   2.511  1.00  0.00     0.199 HD  
BRANCH  12  15
ATOM     15  C6  UNL     1       0.876  -0.865   2.479  1.00  0.00     0.164 C   
BRANCH  15  16
ATOM     16  C7  UNL     1      -0.245   0.125   2.629  1.00  0.00    -0.002 A   
ATOM     17  C8  UNL     1      -0.137   1.214   3.526  1.00  0.00     0.012 A   
ATOM     18  C12 UNL     1      -1.413  -0.021   1.859  1.00  0.00     0.045 A   
ATOM     19  C9  UNL     1      -1.170   2.151   3.646  1.00  0.00     0.037 A   
ATOM     20  C11 UNL     1      -2.411   0.919   1.999  1.00  0.00     0.109 A   
ATOM     21  C10 UNL     1      -2.293   1.976   2.867  1.00  0.00     0.108 A   
ATOM     22  O1  UNL     1      -3.590   0.930   1.323  1.00  0.00    -0.316 OA  
ATOM     23  O2  UNL     1      -3.386   2.781   2.854  1.00  0.00    -0.316 OA  
ATOM     24  C13 UNL     1      -4.230   2.085   1.912  1.00  0.00     0.337 C   
ENDBRANCH  15  16
ENDBRANCH  12  15
ENDBRANCH   7  12
ENDBRANCH   1   7
BRANCH   3  25
ATOM     25  C16 UNL     1      -0.708  -2.586  -2.608  1.00  0.00     0.157 C   
BRANCH  25  26
ATOM     26  C17 UNL     1      -0.786  -2.032  -4.043  1.00  0.00     0.186 C   
BRANCH  26  27
ATOM     27  O3  UNL     1      -1.035  -0.627  -4.086  1.00  0.00    -0.394 OA  
ATOM     28  H24 UNL     1      -1.058  -0.369  -5.028  1.00  0.00     0.210 HD  
ENDBRANCH  26  27
ENDBRANCH  25  26
BRANCH  25  29
ATOM     29  C18 UNL     1      -1.978  -2.580  -1.769  1.00  0.00    -0.005 A   
ATOM     30  C19 UNL     1      -3.087  -1.764  -2.018  1.00  0.00     0.010 A   
ATOM     31  C22 UNL     1      -2.030  -3.379  -0.622  1.00  0.00     0.118 A   
ATOM     32  C20 UNL     1      -4.163  -1.763  -1.132  1.00  0.00     0.041 A   
ATOM     33  N3  UNL     1      -3.044  -3.377   0.267  1.00  0.00    -0.244 NA  
ATOM     34  C21 UNL     1      -4.089  -2.574  -0.015  1.00  0.00     0.129 A   
ATOM     35  CL1 UNL     1      -5.343  -2.592   1.152  1.00  0.00    -0.062 Cl  
ENDBRANCH  25  29
ENDBRANCH   3  25
TORSDOF 10
