REMARK SMILES Fc1cccc2c1O[C@@H](Cn1cc([C@@H]([NH2+]Cc3ccc4c(c3)OCO4)C3CCCC3)nn1)C2
REMARK SMILES IDX 11 1 12 2 13 3 31 4 32 5 10 7 9 8 2 9 3 10 7 11 4 12 6 13
REMARK SMILES IDX 8 14 5 15 33 16 1 17 14 18 15 19 16 22 17 23 18 24 22 25
REMARK SMILES IDX 19 26 21 27 20 28 23 29 25 30 24 31 26 32 27 33 30 34 28 35
REMARK SMILES IDX 29 36
REMARK H PARENT 12 6 15 20 15 21
ROOT
ATOM     1   N1  UNL     1       0.464   2.137   1.458  1.00  0.00    -0.210 N   
ATOM     2   C9  UNL     1      -0.769   1.593   1.232  1.00  0.00     0.045 A   
ATOM     3   C10 UNL     1      -0.538   0.236   1.242  1.00  0.00     0.127 A   
ATOM     4   N3  UNL     1       0.789   0.007   1.506  1.00  0.00    -0.132 NA  
ATOM     5   N4  UNL     1       1.387   1.178   1.649  1.00  0.00    -0.076 NA  
ATOM     6   H7  UNL     1      -1.642   2.200   1.031  1.00  0.00     0.083 HD  
ENDROOT
BRANCH   1   7
ATOM     7   C8  UNL     1       0.836   3.535   1.438  1.00  0.00     0.166 C   
BRANCH   7   8
ATOM     8   C7  UNL     1       1.286   4.033   0.059  1.00  0.00     0.149 C   
ATOM     9   C1  UNL     1       0.070   2.320  -2.851  1.00  0.00     0.153 A   
ATOM     10  C2  UNL     1       0.740   1.446  -3.703  1.00  0.00     0.042 A   
ATOM     11  C6  UNL     1       0.762   2.911  -1.812  1.00  0.00     0.114 A   
ATOM     12  C3  UNL     1       2.099   1.169  -3.494  1.00  0.00     0.004 A   
ATOM     13  C5  UNL     1       2.101   2.633  -1.598  1.00  0.00    -0.012 A   
ATOM     14  O1  UNL     1       0.227   3.795  -0.912  1.00  0.00    -0.337 OA  
ATOM     15  C4  UNL     1       2.789   1.763  -2.431  1.00  0.00     0.007 A   
ATOM     16  C25 UNL     1       2.604   3.424  -0.454  1.00  0.00     0.072 C   
ATOM     17  F1  UNL     1      -1.238   2.546  -3.023  1.00  0.00    -0.204 F   
ENDBRANCH   7   8
ENDBRANCH   1   7
BRANCH   3  18
ATOM     18  C11 UNL     1      -1.432  -0.912   0.905  1.00  0.00     0.117 C   
BRANCH  18  19
ATOM     19  N2  UNL     1      -0.696  -1.871   0.011  1.00  0.00     0.249 N   
ATOM     20  H9  UNL     1      -1.161  -2.780  -0.054  1.00  0.00     0.199 HD  
ATOM     21  H10 UNL     1       0.221  -2.041   0.450  1.00  0.00     0.199 HD  
BRANCH  19  22
ATOM     22  C12 UNL     1      -0.430  -1.361  -1.365  1.00  0.00     0.164 C   
BRANCH  22  23
ATOM     23  C13 UNL     1       0.393  -2.344  -2.146  1.00  0.00    -0.002 A   
ATOM     24  C14 UNL     1       1.804  -2.341  -2.025  1.00  0.00     0.012 A   
ATOM     25  C18 UNL     1      -0.232  -3.299  -2.966  1.00  0.00     0.045 A   
ATOM     26  C15 UNL     1       2.586  -3.268  -2.722  1.00  0.00     0.037 A   
ATOM     27  C17 UNL     1       0.569  -4.198  -3.639  1.00  0.00     0.109 A   
ATOM     28  C16 UNL     1       1.937  -4.183  -3.523  1.00  0.00     0.108 A   
ATOM     29  O2  UNL     1       0.128  -5.179  -4.470  1.00  0.00    -0.316 OA  
ATOM     30  O3  UNL     1       2.531  -5.149  -4.269  1.00  0.00    -0.316 OA  
ATOM     31  C19 UNL     1       1.382  -5.771  -4.884  1.00  0.00     0.337 C   
ENDBRANCH  22  23
ENDBRANCH  19  22
ENDBRANCH  18  19
BRANCH  18  32
ATOM     32  C20 UNL     1      -1.961  -1.619   2.167  1.00  0.00     0.043 C   
ATOM     33  C21 UNL     1      -3.071  -2.641   1.906  1.00  0.00     0.010 C   
ATOM     34  C24 UNL     1      -0.950  -2.441   2.969  1.00  0.00     0.010 C   
ATOM     35  C22 UNL     1      -3.158  -3.449   3.199  1.00  0.00     0.001 C   
ATOM     36  C23 UNL     1      -1.825  -3.254   3.919  1.00  0.00     0.001 C   
ENDBRANCH  18  32
ENDBRANCH   3  18
TORSDOF 7
