REMARK SMILES Fc1cccc2c1O[C@H](Cn1cc([C@@H]([NH2+]Cc3ccc4c(c3)OCO4)C3CCCC3)nn1)C2
REMARK SMILES IDX 11 1 12 2 13 3 31 4 32 5 10 7 9 8 2 9 3 10 7 11 4 12 6 13
REMARK SMILES IDX 8 14 5 15 33 16 1 17 14 18 15 19 16 22 17 23 18 24 22 25
REMARK SMILES IDX 19 26 21 27 20 28 23 29 25 30 24 31 26 32 27 33 30 34 28 35
REMARK SMILES IDX 29 36
REMARK H PARENT 12 6 15 20 15 21
ROOT
ATOM     1   N1  UNL     1      -2.032  -0.616  -1.387  1.00  0.00    -0.210 N   
ATOM     2   C9  UNL     1      -1.205  -1.317  -0.556  1.00  0.00     0.045 A   
ATOM     3   C10 UNL     1      -1.084  -0.506   0.550  1.00  0.00     0.127 A   
ATOM     4   N3  UNL     1      -1.832   0.628   0.362  1.00  0.00    -0.132 NA  
ATOM     5   N4  UNL     1      -2.403   0.550  -0.829  1.00  0.00    -0.076 NA  
ATOM     6   H7  UNL     1      -0.774  -2.269  -0.836  1.00  0.00     0.083 HD  
ENDROOT
BRANCH   1   7
ATOM     7   C8  UNL     1      -2.447  -0.957  -2.734  1.00  0.00     0.166 C   
BRANCH   7   8
ATOM     8   C7  UNL     1      -1.534  -0.308  -3.768  1.00  0.00     0.149 C   
ATOM     9   C1  UNL     1       1.582  -1.166  -5.281  1.00  0.00     0.153 A   
ATOM     10  C2  UNL     1       1.912  -1.205  -6.632  1.00  0.00     0.042 A   
ATOM     11  C6  UNL     1       0.272  -0.921  -4.921  1.00  0.00     0.114 A   
ATOM     12  C3  UNL     1       0.917  -1.006  -7.603  1.00  0.00     0.004 A   
ATOM     13  C5  UNL     1      -0.713  -0.726  -5.875  1.00  0.00    -0.012 A   
ATOM     14  O1  UNL     1      -0.196  -0.868  -3.635  1.00  0.00    -0.337 OA  
ATOM     15  C4  UNL     1      -0.411  -0.770  -7.226  1.00  0.00     0.007 A   
ATOM     16  C25 UNL     1      -2.022  -0.555  -5.205  1.00  0.00     0.072 C   
ATOM     17  F1  UNL     1       2.525  -1.360  -4.349  1.00  0.00    -0.204 F   
ENDBRANCH   7   8
ENDBRANCH   1   7
BRANCH   3  18
ATOM     18  C11 UNL     1      -0.255  -0.646   1.784  1.00  0.00     0.117 C   
BRANCH  18  19
ATOM     19  N2  UNL     1       0.376   0.682   2.122  1.00  0.00     0.249 N   
ATOM     20  H9  UNL     1      -0.382   1.381   2.118  1.00  0.00     0.199 HD  
ATOM     21  H10 UNL     1       0.769   0.686   3.067  1.00  0.00     0.199 HD  
BRANCH  19  22
ATOM     22  C12 UNL     1       1.421   1.155   1.169  1.00  0.00     0.164 C   
BRANCH  22  23
ATOM     23  C13 UNL     1       2.010   2.453   1.645  1.00  0.00    -0.002 A   
ATOM     24  C14 UNL     1       3.208   2.465   2.397  1.00  0.00     0.012 A   
ATOM     25  C18 UNL     1       1.338   3.663   1.393  1.00  0.00     0.045 A   
ATOM     26  C15 UNL     1       3.740   3.665   2.881  1.00  0.00     0.037 A   
ATOM     27  C17 UNL     1       1.888   4.827   1.888  1.00  0.00     0.109 A   
ATOM     28  C16 UNL     1       3.056   4.828   2.610  1.00  0.00     0.108 A   
ATOM     29  O2  UNL     1       1.367   6.073   1.740  1.00  0.00    -0.316 OA  
ATOM     30  O3  UNL     1       3.421   6.076   3.002  1.00  0.00    -0.316 OA  
ATOM     31  C19 UNL     1       2.358   6.868   2.429  1.00  0.00     0.337 C   
ENDBRANCH  22  23
ENDBRANCH  19  22
ENDBRANCH  18  19
BRANCH  18  32
ATOM     32  C20 UNL     1      -1.091  -1.109   2.993  1.00  0.00     0.043 C   
ATOM     33  C21 UNL     1      -0.283  -1.297   4.284  1.00  0.00     0.010 C   
ATOM     34  C24 UNL     1      -1.725  -2.491   2.804  1.00  0.00     0.010 C   
ATOM     35  C22 UNL     1      -1.052  -2.323   5.116  1.00  0.00     0.001 C   
ATOM     36  C23 UNL     1      -2.149  -2.873   4.212  1.00  0.00     0.001 C   
ENDBRANCH  18  32
ENDBRANCH   3  18
TORSDOF 7
