REMARK SMILES CC(C)C[C@H]([NH2+]Cc1ccc2c(c1)OCO2)c1cn(-c2ccccc2CCO)nn1
REMARK SMILES IDX 20 1 21 2 22 3 23 4 24 5 25 6 19 7 17 8 18 9 30 10 29 11
REMARK SMILES IDX 5 12 4 13 2 14 1 15 3 16 6 17 7 20 8 21 9 22 13 23 10 24
REMARK SMILES IDX 12 25 11 26 14 27 16 28 15 29 26 30 27 31 28 32
REMARK H PARENT 6 18 6 19 28 33
ROOT
ATOM     1   C16 UNL     1      -3.162   2.415  -2.165  1.00  0.00     0.061 A   
ATOM     2   C17 UNL     1      -3.895   2.465  -3.373  1.00  0.00     0.026 A   
ATOM     3   C18 UNL     1      -5.023   3.274  -3.502  1.00  0.00     0.002 A   
ATOM     4   C19 UNL     1      -5.447   4.037  -2.426  1.00  0.00     0.000 A   
ATOM     5   C20 UNL     1      -4.762   3.965  -1.213  1.00  0.00     0.006 A   
ATOM     6   C21 UNL     1      -3.621   3.146  -1.045  1.00  0.00    -0.022 A   
ENDROOT
BRANCH   1   7
ATOM     7   N2  UNL     1      -1.989   1.611  -2.180  1.00  0.00    -0.180 N   
ATOM     8   C14 UNL     1      -0.046   0.653  -1.855  1.00  0.00     0.127 A   
ATOM     9   C15 UNL     1      -0.811   1.729  -1.470  1.00  0.00     0.135 A   
ATOM     10  N4  UNL     1      -0.706  -0.042  -2.827  1.00  0.00    -0.131 NA  
ATOM     11  N3  UNL     1      -1.851   0.577  -3.061  1.00  0.00    -0.071 NA  
BRANCH   8  12
ATOM     12  C5  UNL     1       1.282   0.164  -1.376  1.00  0.00     0.114 C   
BRANCH  12  13
ATOM     13  C4  UNL     1       2.426   0.793  -2.196  1.00  0.00     0.064 C   
BRANCH  13  14
ATOM     14  C2  UNL     1       3.857   0.431  -1.754  1.00  0.00    -0.012 C   
ATOM     15  C1  UNL     1       4.867   1.034  -2.735  1.00  0.00     0.007 C   
ATOM     16  C3  UNL     1       4.167   0.923  -0.339  1.00  0.00     0.007 C   
ENDBRANCH  13  14
ENDBRANCH  12  13
BRANCH  12  17
ATOM     17  N1  UNL     1       1.314  -1.343  -1.524  1.00  0.00     0.249 N   
ATOM     18  H11 UNL     1       0.349  -1.622  -1.764  1.00  0.00     0.199 HD  
ATOM     19  H12 UNL     1       1.848  -1.596  -2.363  1.00  0.00     0.199 HD  
BRANCH  17  20
ATOM     20  C6  UNL     1       1.754  -2.152  -0.359  1.00  0.00     0.164 C   
BRANCH  20  21
ATOM     21  C7  UNL     1       0.953  -1.935   0.897  1.00  0.00    -0.002 A   
ATOM     22  C8  UNL     1       1.612  -1.562   2.095  1.00  0.00     0.012 A   
ATOM     23  C12 UNL     1      -0.443  -2.109   0.907  1.00  0.00     0.045 A   
ATOM     24  C9  UNL     1       0.897  -1.349   3.279  1.00  0.00     0.037 A   
ATOM     25  C11 UNL     1      -1.118  -1.889   2.092  1.00  0.00     0.109 A   
ATOM     26  C10 UNL     1      -0.467  -1.520   3.244  1.00  0.00     0.108 A   
ATOM     27  O1  UNL     1      -2.463  -1.984   2.265  1.00  0.00    -0.316 OA  
ATOM     28  O2  UNL     1      -1.317  -1.353   4.291  1.00  0.00    -0.316 OA  
ATOM     29  C13 UNL     1      -2.574  -1.712   3.683  1.00  0.00     0.337 C   
ENDBRANCH  20  21
ENDBRANCH  17  20
ENDBRANCH  12  17
ENDBRANCH   8  12
ENDBRANCH   1   7
BRANCH   6  30
ATOM     30  C22 UNL     1      -3.106   3.031   0.380  1.00  0.00     0.065 C   
BRANCH  30  31
ATOM     31  C23 UNL     1      -3.509   1.715   1.052  1.00  0.00     0.161 C   
BRANCH  31  32
ATOM     32  O3  UNL     1      -2.670   0.648   0.619  1.00  0.00    -0.396 OA  
ATOM     33  H29 UNL     1      -3.034  -0.168   1.012  1.00  0.00     0.210 HD  
ENDBRANCH  31  32
ENDBRANCH  30  31
ENDBRANCH   6  30
TORSDOF 10
