REMARK SMILES CC(C)[C@H]([NH2+]Cc1ccc2c(c1)OCO2)c1cn(CCc2ccc(Cl)cc2O)nn1
REMARK SMILES IDX 16 1 17 2 18 3 29 4 30 5 4 7 2 8 1 9 3 10 5 11 6 14 7 15
REMARK SMILES IDX 8 16 12 17 9 18 11 19 10 20 13 21 15 22 14 23 19 24 20 25
REMARK SMILES IDX 21 26 22 27 27 28 23 29 26 30 24 31 25 32 28 33
REMARK H PARENT 17 6 5 12 5 13 28 34
ROOT
ATOM     1   C13 UNL     1       0.433   1.337  -0.988  1.00  0.00     0.127 A   
ATOM     2   C14 UNL     1       0.181   1.798   0.285  1.00  0.00     0.045 A   
ATOM     3   N2  UNL     1      -0.848   2.681   0.116  1.00  0.00    -0.212 N   
ATOM     4   N3  UNL     1      -1.216   2.751  -1.177  1.00  0.00    -0.076 NA  
ATOM     5   N4  UNL     1      -0.436   1.933  -1.865  1.00  0.00    -0.132 NA  
ATOM     6   H18 UNL     1       0.607   1.585   1.256  1.00  0.00     0.083 HD  
ENDROOT
BRANCH   1   7
ATOM     7   C4  UNL     1       1.388   0.301  -1.487  1.00  0.00     0.117 C   
BRANCH   7   8
ATOM     8   C2  UNL     1       2.605   0.923  -2.231  1.00  0.00     0.037 C   
ATOM     9   C1  UNL     1       3.591  -0.140  -2.735  1.00  0.00     0.014 C   
ATOM     10  C3  UNL     1       3.374   1.902  -1.330  1.00  0.00     0.014 C   
ENDBRANCH   7   8
BRANCH   7  11
ATOM     11  N1  UNL     1       0.657  -0.631  -2.434  1.00  0.00     0.249 N   
ATOM     12  H9  UNL     1       0.260  -0.035  -3.174  1.00  0.00     0.199 HD  
ATOM     13  H10 UNL     1       1.309  -1.282  -2.877  1.00  0.00     0.199 HD  
BRANCH  11  14
ATOM     14  C5  UNL     1      -0.468  -1.425  -1.851  1.00  0.00     0.164 C   
BRANCH  14  15
ATOM     15  C6  UNL     1      -0.011  -2.416  -0.816  1.00  0.00    -0.002 A   
ATOM     16  C7  UNL     1      -0.235  -2.162   0.560  1.00  0.00     0.012 A   
ATOM     17  C11 UNL     1       0.665  -3.588  -1.202  1.00  0.00     0.045 A   
ATOM     18  C8  UNL     1       0.201  -3.061   1.539  1.00  0.00     0.037 A   
ATOM     19  C10 UNL     1       1.080  -4.453  -0.210  1.00  0.00     0.109 A   
ATOM     20  C9  UNL     1       0.853  -4.199   1.122  1.00  0.00     0.108 A   
ATOM     21  O1  UNL     1       1.740  -5.624  -0.410  1.00  0.00    -0.316 OA  
ATOM     22  O2  UNL     1       1.339  -5.179   1.927  1.00  0.00    -0.316 OA  
ATOM     23  C12 UNL     1       1.867  -6.103   0.949  1.00  0.00     0.337 C   
ENDBRANCH  14  15
ENDBRANCH  11  14
ENDBRANCH   7  11
ENDBRANCH   1   7
BRANCH   3  24
ATOM     24  C15 UNL     1      -1.530   3.458   1.128  1.00  0.00     0.139 C   
BRANCH  24  25
ATOM     25  C16 UNL     1      -2.962   2.985   1.389  1.00  0.00     0.059 C   
BRANCH  25  26
ATOM     26  C17 UNL     1      -3.081   1.537   1.816  1.00  0.00    -0.016 A   
ATOM     27  C18 UNL     1      -3.758   0.623   0.991  1.00  0.00     0.008 A   
ATOM     28  C22 UNL     1      -2.559   1.079   3.034  1.00  0.00     0.076 A   
ATOM     29  C19 UNL     1      -3.903  -0.711   1.377  1.00  0.00     0.021 A   
ATOM     30  C21 UNL     1      -2.696  -0.251   3.426  1.00  0.00     0.054 A   
ATOM     31  C20 UNL     1      -3.370  -1.142   2.591  1.00  0.00     0.043 A   
ATOM     32  CL1 UNL     1      -3.524  -2.792   3.049  1.00  0.00    -0.084 Cl  
BRANCH  28  33
ATOM     33  O3  UNL     1      -1.898   1.964   3.839  1.00  0.00    -0.361 OA  
ATOM     34  H26 UNL     1      -1.825   1.586   4.735  1.00  0.00     0.218 HD  
ENDBRANCH  28  33
ENDBRANCH  25  26
ENDBRANCH  24  25
ENDBRANCH   3  24
TORSDOF 9
