REMARK SMILES [O-]N([O-])c1cc(Cn2cc([C@@H]([NH2+]Cc3ccc4c(c3)OCO4)C3CCCC3)nn2)ccc1F
REMARK SMILES IDX 8 1 9 2 10 3 28 4 29 5 7 7 6 8 4 9 5 10 32 11 31 12 30 13
REMARK SMILES IDX 33 14 2 15 1 16 3 17 11 18 12 19 13 22 14 23 15 24 19 25
REMARK SMILES IDX 16 26 18 27 17 28 20 29 22 30 21 31 23 32 24 33 27 34 25 35
REMARK SMILES IDX 26 36
REMARK H PARENT 9 6 12 20 12 21
ROOT
ATOM     1   N2  UNL     1       0.128  -1.635   2.818  1.00  0.00    -0.208 N   
ATOM     2   C5  UNL     1      -0.863  -1.635   1.872  1.00  0.00     0.046 A   
ATOM     3   C6  UNL     1      -0.236  -1.177   0.734  1.00  0.00     0.127 A   
ATOM     4   N4  UNL     1       1.090  -0.961   1.006  1.00  0.00    -0.132 NA  
ATOM     5   N5  UNL     1       1.299  -1.240   2.283  1.00  0.00    -0.076 NA  
ATOM     6   H4  UNL     1      -1.885  -1.899   2.105  1.00  0.00     0.083 HD  
ENDROOT
BRANCH   1   7
ATOM     7   C4  UNL     1       0.000  -1.824   4.258  1.00  0.00     0.169 C   
BRANCH   7   8
ATOM     8   C3  UNL     1      -0.796  -0.698   4.883  1.00  0.00    -0.026 A   
ATOM     9   C1  UNL     1      -1.299   1.666   5.126  1.00  0.00     0.154 A   
ATOM     10  C2  UNL     1      -0.504   0.646   4.587  1.00  0.00     0.039 A   
ATOM     11  C23 UNL     1      -2.346   1.382   5.989  1.00  0.00     0.151 A   
ATOM     12  C22 UNL     1      -2.615   0.058   6.324  1.00  0.00     0.042 A   
ATOM     13  C21 UNL     1      -1.847  -0.978   5.775  1.00  0.00     0.008 A   
ATOM     14  F1  UNL     1      -3.139   2.344   6.475  1.00  0.00    -0.205 F   
BRANCH   9  15
ATOM     15  N1  UNL     1      -1.069   3.029   4.696  1.00  0.00     0.095 N   
ATOM     16  O1  UNL     1      -0.922   3.200   3.474  1.00  0.00    -0.138 OA  
ATOM     17  O2  UNL     1      -1.002   3.910   5.561  1.00  0.00    -0.138 OA  
ENDBRANCH   9  15
ENDBRANCH   7   8
ENDBRANCH   1   7
BRANCH   3  18
ATOM     18  C7  UNL     1      -0.770  -0.846  -0.624  1.00  0.00     0.117 C   
BRANCH  18  19
ATOM     19  N3  UNL     1      -0.003   0.305  -1.214  1.00  0.00     0.249 N   
ATOM     20  H6  UNL     1       0.997   0.112  -1.050  1.00  0.00     0.199 HD  
ATOM     21  H7  UNL     1      -0.117   0.373  -2.228  1.00  0.00     0.199 HD  
BRANCH  19  22
ATOM     22  C8  UNL     1      -0.283   1.640  -0.609  1.00  0.00     0.164 C   
BRANCH  22  23
ATOM     23  C9  UNL     1       0.581   2.690  -1.249  1.00  0.00    -0.002 A   
ATOM     24  C10 UNL     1       0.098   3.450  -2.341  1.00  0.00     0.012 A   
ATOM     25  C14 UNL     1       1.901   2.882  -0.801  1.00  0.00     0.045 A   
ATOM     26  C11 UNL     1       0.912   4.396  -2.974  1.00  0.00     0.037 A   
ATOM     27  C13 UNL     1       2.679   3.818  -1.450  1.00  0.00     0.109 A   
ATOM     28  C12 UNL     1       2.199   4.554  -2.506  1.00  0.00     0.108 A   
ATOM     29  O3  UNL     1       3.967   4.119  -1.153  1.00  0.00    -0.316 OA  
ATOM     30  O4  UNL     1       3.124   5.415  -3.003  1.00  0.00    -0.316 OA  
ATOM     31  C15 UNL     1       4.244   5.150  -2.128  1.00  0.00     0.337 C   
ENDBRANCH  22  23
ENDBRANCH  19  22
ENDBRANCH  18  19
BRANCH  18  32
ATOM     32  C16 UNL     1      -0.740  -2.072  -1.556  1.00  0.00     0.043 C   
ATOM     33  C17 UNL     1       0.641  -2.557  -2.013  1.00  0.00     0.010 C   
ATOM     34  C20 UNL     1      -1.483  -1.889  -2.881  1.00  0.00     0.010 C   
ATOM     35  C18 UNL     1       0.375  -3.402  -3.261  1.00  0.00     0.001 C   
ATOM     36  C19 UNL     1      -1.072  -3.127  -3.669  1.00  0.00     0.001 C   
ENDBRANCH  18  32
ENDBRANCH   3  18
TORSDOF 8
