REMARK SMILES CC(C)C[C@H]([NH2+]Cc1ccc2c(c1)OCO2)c1cn(Cc2cccc3ccn(C)c23)nn1
REMARK SMILES IDX 17 1 18 2 19 3 31 4 32 5 5 7 4 8 2 9 1 10 3 11 6 12 7 15
REMARK SMILES IDX 8 16 9 17 13 18 10 19 12 20 11 21 14 22 16 23 15 24 20 25
REMARK SMILES IDX 21 26 22 27 30 28 23 29 25 30 28 31 24 32 26 33 27 34 29 35
REMARK H PARENT 18 6 6 13 6 14
ROOT
ATOM     1   C14 UNL     1       0.329  -0.796  -0.919  1.00  0.00     0.127 A   
ATOM     2   C15 UNL     1      -0.357  -0.789  -2.112  1.00  0.00     0.046 A   
ATOM     3   N2  UNL     1      -1.434  -1.604  -1.885  1.00  0.00    -0.208 N   
ATOM     4   N4  UNL     1      -1.386  -2.118  -0.635  1.00  0.00    -0.076 NA  
ATOM     5   N5  UNL     1      -0.317  -1.623  -0.034  1.00  0.00    -0.132 NA  
ATOM     6   H20 UNL     1      -0.198  -0.285  -3.057  1.00  0.00     0.083 HD  
ENDROOT
BRANCH   1   7
ATOM     7   C5  UNL     1       1.573  -0.080  -0.500  1.00  0.00     0.114 C   
BRANCH   7   8
ATOM     8   C4  UNL     1       2.831  -0.819  -0.997  1.00  0.00     0.064 C   
BRANCH   8   9
ATOM     9   C2  UNL     1       4.179  -0.100  -0.764  1.00  0.00    -0.012 C   
ATOM     10  C1  UNL     1       4.229   1.282  -1.422  1.00  0.00     0.007 C   
ATOM     11  C3  UNL     1       5.322  -0.968  -1.303  1.00  0.00     0.007 C   
ENDBRANCH   8   9
ENDBRANCH   7   8
BRANCH   7  12
ATOM     12  N1  UNL     1       1.626   0.024   1.000  1.00  0.00     0.249 N   
ATOM     13  H11 UNL     1       2.584   0.122   1.350  1.00  0.00     0.199 HD  
ATOM     14  H12 UNL     1       1.279  -0.875   1.371  1.00  0.00     0.199 HD  
BRANCH  12  15
ATOM     15  C6  UNL     1       0.781   1.098   1.589  1.00  0.00     0.164 C   
BRANCH  15  16
ATOM     16  C7  UNL     1       0.875   1.069   3.088  1.00  0.00    -0.002 A   
ATOM     17  C8  UNL     1      -0.105   0.391   3.853  1.00  0.00     0.012 A   
ATOM     18  C12 UNL     1       1.975   1.655   3.736  1.00  0.00     0.045 A   
ATOM     19  C9  UNL     1       0.005   0.304   5.245  1.00  0.00     0.037 A   
ATOM     20  C11 UNL     1       2.057   1.544   5.108  1.00  0.00     0.109 A   
ATOM     21  C10 UNL     1       1.100   0.890   5.843  1.00  0.00     0.108 A   
ATOM     22  O1  UNL     1       3.062   2.039   5.879  1.00  0.00    -0.316 OA  
ATOM     23  O2  UNL     1       1.379   0.889   7.171  1.00  0.00    -0.316 OA  
ATOM     24  C13 UNL     1       2.612   1.640   7.196  1.00  0.00     0.337 C   
ENDBRANCH  15  16
ENDBRANCH  12  15
ENDBRANCH   7  12
ENDBRANCH   1   7
BRANCH   3  25
ATOM     25  C16 UNL     1      -2.513  -1.980  -2.789  1.00  0.00     0.171 C   
BRANCH  25  26
ATOM     26  C17 UNL     1      -2.958  -0.821  -3.650  1.00  0.00    -0.006 A   
ATOM     27  C18 UNL     1      -2.530  -0.806  -5.000  1.00  0.00     0.007 A   
ATOM     28  C25 UNL     1      -3.733   0.288  -3.216  1.00  0.00     0.044 A   
ATOM     29  C19 UNL     1      -2.823   0.242  -5.862  1.00  0.00     0.001 A   
ATOM     30  C21 UNL     1      -4.009   1.366  -4.075  1.00  0.00    -0.002 A   
ATOM     31  N3  UNL     1      -4.359   0.599  -2.016  1.00  0.00    -0.310 N   
ATOM     32  C20 UNL     1      -3.552   1.335  -5.407  1.00  0.00     0.010 A   
ATOM     33  C22 UNL     1      -4.755   2.331  -3.349  1.00  0.00     0.025 A   
ATOM     34  C23 UNL     1      -4.950   1.836  -2.086  1.00  0.00     0.075 A   
ATOM     35  C24 UNL     1      -4.459  -0.231  -0.835  1.00  0.00     0.136 C   
ENDBRANCH  25  26
ENDBRANCH   3  25
TORSDOF 8
