REMARK SMILES CC(C)(C)[C@H]([NH2+]Cc1ccc2c(c1)OCO2)c1cn([C@H](CO)c2ncccc2F)nn1
REMARK SMILES IDX 17 1 18 2 19 3 30 4 31 5 5 7 2 8 1 9 3 10 4 11 6 12 7 15
REMARK SMILES IDX 8 16 9 17 13 18 10 19 12 20 11 21 14 22 16 23 15 24 20 25
REMARK SMILES IDX 21 26 22 27 23 29 24 30 28 31 25 32 27 33 26 34 29 35
REMARK H PARENT 18 6 6 13 6 14 22 28
ROOT
ATOM     1   C14 UNL     1      -0.308   0.476   0.706  1.00  0.00     0.127 A   
ATOM     2   C15 UNL     1      -1.498   0.896   0.156  1.00  0.00     0.046 A   
ATOM     3   N2  UNL     1      -1.242   2.178  -0.261  1.00  0.00    -0.201 N   
ATOM     4   N4  UNL     1       0.056   2.490  -0.047  1.00  0.00    -0.075 NA  
ATOM     5   N5  UNL     1       0.629   1.467   0.563  1.00  0.00    -0.132 NA  
ATOM     6   H20 UNL     1      -2.466   0.430   0.029  1.00  0.00     0.083 HD  
ENDROOT
BRANCH   1   7
ATOM     7   C5  UNL     1       0.097  -0.834   1.310  1.00  0.00     0.120 C   
BRANCH   7   8
ATOM     8   C2  UNL     1      -0.135  -0.921   2.859  1.00  0.00     0.010 C   
ATOM     9   C1  UNL     1       0.707   0.104   3.644  1.00  0.00     0.017 C   
ATOM     10  C3  UNL     1      -1.626  -0.679   3.194  1.00  0.00     0.017 C   
ATOM     11  C4  UNL     1       0.216  -2.336   3.378  1.00  0.00     0.017 C   
ENDBRANCH   7   8
BRANCH   7  12
ATOM     12  N1  UNL     1       1.552  -1.091   0.982  1.00  0.00     0.250 N   
ATOM     13  H11 UNL     1       2.054  -0.212   1.183  1.00  0.00     0.199 HD  
ATOM     14  H12 UNL     1       1.968  -1.811   1.577  1.00  0.00     0.199 HD  
BRANCH  12  15
ATOM     15  C6  UNL     1       1.828  -1.433  -0.444  1.00  0.00     0.164 C   
BRANCH  15  16
ATOM     16  C7  UNL     1       3.308  -1.529  -0.685  1.00  0.00    -0.002 A   
ATOM     17  C8  UNL     1       3.971  -2.779  -0.621  1.00  0.00     0.012 A   
ATOM     18  C12 UNL     1       4.051  -0.359  -0.929  1.00  0.00     0.045 A   
ATOM     19  C9  UNL     1       5.354  -2.866  -0.809  1.00  0.00     0.037 A   
ATOM     20  C11 UNL     1       5.413  -0.482  -1.113  1.00  0.00     0.109 A   
ATOM     21  C10 UNL     1       6.046  -1.700  -1.056  1.00  0.00     0.108 A   
ATOM     22  O1  UNL     1       6.275   0.540  -1.359  1.00  0.00    -0.316 OA  
ATOM     23  O2  UNL     1       7.385  -1.600  -1.262  1.00  0.00    -0.316 OA  
ATOM     24  C13 UNL     1       7.522  -0.178  -1.482  1.00  0.00     0.337 C   
ENDBRANCH  15  16
ENDBRANCH  12  15
ENDBRANCH   7  12
ENDBRANCH   1   7
BRANCH   3  25
ATOM     25  C16 UNL     1      -2.136   3.142  -0.895  1.00  0.00     0.177 C   
BRANCH  25  26
ATOM     26  C17 UNL     1      -3.478   3.294  -0.159  1.00  0.00     0.187 C   
BRANCH  26  27
ATOM     27  O3  UNL     1      -3.279   3.819   1.153  1.00  0.00    -0.394 OA  
ATOM     28  H24 UNL     1      -4.123   4.210   1.450  1.00  0.00     0.210 HD  
ENDBRANCH  26  27
ENDBRANCH  25  26
BRANCH  25  29
ATOM     29  C18 UNL     1      -2.358   2.752  -2.340  1.00  0.00     0.101 A   
ATOM     30  N3  UNL     1      -3.098   1.632  -2.598  1.00  0.00    -0.256 NA  
ATOM     31  C22 UNL     1      -1.827   3.535  -3.360  1.00  0.00     0.146 A   
ATOM     32  C19 UNL     1      -3.313   1.317  -3.897  1.00  0.00     0.111 A   
ATOM     33  C21 UNL     1      -2.057   3.184  -4.683  1.00  0.00     0.043 A   
ATOM     34  C20 UNL     1      -2.816   2.052  -4.962  1.00  0.00     0.023 A   
ATOM     35  F1  UNL     1      -1.111   4.633  -3.083  1.00  0.00    -0.205 F   
ENDBRANCH  25  29
ENDBRANCH   3  25
TORSDOF 9
