REMARK SMILES CC(C)(C)[C@H]([NH2+]Cc1ccc2c(c1)OCO2)c1cn([C@@H](CO)c2ncccc2F)nn1
REMARK SMILES IDX 17 1 18 2 19 3 30 4 31 5 5 7 2 8 1 9 3 10 4 11 6 12 7 15
REMARK SMILES IDX 8 16 9 17 13 18 10 19 12 20 11 21 14 22 16 23 15 24 20 25
REMARK SMILES IDX 21 26 22 27 23 29 24 30 28 31 25 32 27 33 26 34 29 35
REMARK H PARENT 18 6 6 13 6 14 22 28
ROOT
ATOM     1   C14 UNL     1      -0.222  -1.657   1.050  1.00  0.00     0.127 A   
ATOM     2   C15 UNL     1      -1.393  -0.936   1.012  1.00  0.00     0.046 A   
ATOM     3   N2  UNL     1      -1.769  -0.837   2.326  1.00  0.00    -0.201 N   
ATOM     4   N4  UNL     1      -0.875  -1.462   3.121  1.00  0.00    -0.075 NA  
ATOM     5   N5  UNL     1       0.073  -1.969   2.351  1.00  0.00    -0.132 NA  
ATOM     6   H20 UNL     1      -1.946  -0.459   0.214  1.00  0.00     0.083 HD  
ENDROOT
BRANCH   1   7
ATOM     7   C5  UNL     1       0.752  -1.994  -0.035  1.00  0.00     0.120 C   
BRANCH   7   8
ATOM     8   C2  UNL     1       0.646  -3.467  -0.564  1.00  0.00     0.010 C   
ATOM     9   C1  UNL     1       1.579  -3.667  -1.781  1.00  0.00     0.017 C   
ATOM     10  C3  UNL     1      -0.795  -3.749  -1.049  1.00  0.00     0.017 C   
ATOM     11  C4  UNL     1       1.013  -4.519   0.501  1.00  0.00     0.017 C   
ENDBRANCH   7   8
BRANCH   7  12
ATOM     12  N1  UNL     1       2.155  -1.708   0.466  1.00  0.00     0.250 N   
ATOM     13  H11 UNL     1       2.859  -2.107  -0.157  1.00  0.00     0.199 HD  
ATOM     14  H12 UNL     1       2.237  -2.187   1.374  1.00  0.00     0.199 HD  
BRANCH  12  15
ATOM     15  C6  UNL     1       2.488  -0.268   0.703  1.00  0.00     0.164 C   
BRANCH  15  16
ATOM     16  C7  UNL     1       2.526   0.538  -0.565  1.00  0.00    -0.002 A   
ATOM     17  C8  UNL     1       3.595   0.384  -1.482  1.00  0.00     0.012 A   
ATOM     18  C12 UNL     1       1.478   1.426  -0.867  1.00  0.00     0.045 A   
ATOM     19  C9  UNL     1       3.617   1.097  -2.685  1.00  0.00     0.037 A   
ATOM     20  C11 UNL     1       1.530   2.111  -2.063  1.00  0.00     0.109 A   
ATOM     21  C10 UNL     1       2.569   1.952  -2.946  1.00  0.00     0.108 A   
ATOM     22  O1  UNL     1       0.598   2.993  -2.511  1.00  0.00    -0.316 OA  
ATOM     23  O2  UNL     1       2.424   2.715  -4.060  1.00  0.00    -0.316 OA  
ATOM     24  C13 UNL     1       1.188   3.401  -3.766  1.00  0.00     0.337 C   
ENDBRANCH  15  16
ENDBRANCH  12  15
ENDBRANCH   7  12
ENDBRANCH   1   7
BRANCH   3  25
ATOM     25  C16 UNL     1      -2.864  -0.073   2.917  1.00  0.00     0.177 C   
BRANCH  25  26
ATOM     26  C17 UNL     1      -2.483   1.414   3.033  1.00  0.00     0.187 C   
BRANCH  26  27
ATOM     27  O3  UNL     1      -2.215   2.024   1.765  1.00  0.00    -0.394 OA  
ATOM     28  H24 UNL     1      -3.062   1.983   1.269  1.00  0.00     0.210 HD  
ENDBRANCH  26  27
ENDBRANCH  25  26
BRANCH  25  29
ATOM     29  C18 UNL     1      -4.157  -0.306   2.163  1.00  0.00     0.101 A   
ATOM     30  N3  UNL     1      -4.526   0.597   1.206  1.00  0.00    -0.256 NA  
ATOM     31  C22 UNL     1      -4.915  -1.442   2.434  1.00  0.00     0.146 A   
ATOM     32  C19 UNL     1      -5.685   0.360   0.544  1.00  0.00     0.111 A   
ATOM     33  C21 UNL     1      -6.093  -1.665   1.736  1.00  0.00     0.043 A   
ATOM     34  C20 UNL     1      -6.492  -0.745   0.772  1.00  0.00     0.023 A   
ATOM     35  F1  UNL     1      -4.517  -2.324   3.360  1.00  0.00    -0.205 F   
ENDBRANCH  25  29
ENDBRANCH   3  25
TORSDOF 9
