REMARK SMILES CC(C)C[C@H]([NH2+]Cc1ccc2c(c1)OCO2)c1cn(C[C@@H]2NCCc3occc32)nn1
REMARK SMILES IDX 17 1 18 2 19 3 30 4 31 5 5 7 4 8 2 9 1 10 3 11 6 12 7 15
REMARK SMILES IDX 8 16 9 17 13 18 10 19 12 20 11 21 14 22 16 23 15 24 20 25
REMARK SMILES IDX 21 26 22 27 29 28 23 29 25 30 28 31 24 32 26 33 27 34
REMARK H PARENT 18 6 6 13 6 14 22 35
ROOT
ATOM     1   C14 UNL     1       1.221  -0.688  -0.537  1.00  0.00     0.127 A   
ATOM     2   C15 UNL     1       1.605  -0.040  -1.690  1.00  0.00     0.045 A   
ATOM     3   N2  UNL     1       0.771  -0.548  -2.645  1.00  0.00    -0.210 N   
ATOM     4   N4  UNL     1      -0.008  -1.521  -2.132  1.00  0.00    -0.076 NA  
ATOM     5   N5  UNL     1       0.248  -1.606  -0.838  1.00  0.00    -0.132 NA  
ATOM     6   H20 UNL     1       2.295   0.766  -1.894  1.00  0.00     0.083 HD  
ENDROOT
BRANCH   1   7
ATOM     7   C5  UNL     1       1.547  -0.411   0.888  1.00  0.00     0.114 C   
BRANCH   7   8
ATOM     8   C4  UNL     1       2.279  -1.560   1.604  1.00  0.00     0.064 C   
BRANCH   8   9
ATOM     9   C2  UNL     1       3.765  -1.726   1.210  1.00  0.00    -0.012 C   
ATOM     10  C1  UNL     1       4.513  -2.467   2.325  1.00  0.00     0.007 C   
ATOM     11  C3  UNL     1       3.957  -2.491  -0.100  1.00  0.00     0.007 C   
ENDBRANCH   8   9
ENDBRANCH   7   8
BRANCH   7  12
ATOM     12  N1  UNL     1       0.242  -0.186   1.629  1.00  0.00     0.249 N   
ATOM     13  H11 UNL     1      -0.357  -0.993   1.401  1.00  0.00     0.199 HD  
ATOM     14  H12 UNL     1       0.373  -0.199   2.644  1.00  0.00     0.199 HD  
BRANCH  12  15
ATOM     15  C6  UNL     1      -0.510   1.047   1.246  1.00  0.00     0.164 C   
BRANCH  15  16
ATOM     16  C7  UNL     1      -1.841   1.097   1.944  1.00  0.00    -0.002 A   
ATOM     17  C8  UNL     1      -2.067   2.002   3.006  1.00  0.00     0.012 A   
ATOM     18  C12 UNL     1      -2.871   0.225   1.546  1.00  0.00     0.045 A   
ATOM     19  C9  UNL     1      -3.303   2.043   3.663  1.00  0.00     0.037 A   
ATOM     20  C11 UNL     1      -4.076   0.294   2.212  1.00  0.00     0.109 A   
ATOM     21  C10 UNL     1      -4.286   1.177   3.242  1.00  0.00     0.108 A   
ATOM     22  O1  UNL     1      -5.173  -0.460   1.944  1.00  0.00    -0.316 OA  
ATOM     23  O2  UNL     1      -5.542   1.087   3.751  1.00  0.00    -0.316 OA  
ATOM     24  C13 UNL     1      -6.109   0.060   2.914  1.00  0.00     0.337 C   
ENDBRANCH  15  16
ENDBRANCH  12  15
ENDBRANCH   7  12
ENDBRANCH   1   7
BRANCH   3  25
ATOM     25  C16 UNL     1       0.556  -0.084  -4.002  1.00  0.00     0.157 C   
BRANCH  25  26
ATOM     26  C17 UNL     1       0.098   1.388  -4.108  1.00  0.00     0.106 C   
ATOM     27  N3  UNL     1       1.259   2.308  -3.883  1.00  0.00    -0.308 NA  
ATOM     28  C23 UNL     1      -1.016   1.740  -3.161  1.00  0.00    -0.001 A   
ATOM     29  C18 UNL     1       0.861   3.728  -3.716  1.00  0.00     0.088 C   
ATOM     30  C20 UNL     1      -1.023   2.903  -2.429  1.00  0.00     0.065 A   
ATOM     31  C22 UNL     1      -2.235   1.093  -2.832  1.00  0.00     0.033 A   
ATOM     32  C19 UNL     1       0.003   3.962  -2.453  1.00  0.00     0.077 C   
ATOM     33  O3  UNL     1      -2.114   3.005  -1.641  1.00  0.00    -0.322 OA  
ATOM     34  C21 UNL     1      -2.866   1.901  -1.908  1.00  0.00     0.136 A   
ATOM     35  H24 UNL     1       1.868   2.253  -4.702  1.00  0.00     0.123 HD  
ENDBRANCH  25  26
ENDBRANCH   3  25
TORSDOF 8
