REMARK SMILES CC(C)C[C@H]([NH2+]Cc1ccc2c(c1)OCO2)c1cn(C[C@H]2NCCc3occc32)nn1
REMARK SMILES IDX 17 1 18 2 19 3 30 4 31 5 5 7 4 8 2 9 1 10 3 11 6 12 7 15
REMARK SMILES IDX 8 16 9 17 13 18 10 19 12 20 11 21 14 22 16 23 15 24 20 25
REMARK SMILES IDX 21 26 22 27 29 28 23 29 25 30 28 31 24 32 26 33 27 34
REMARK H PARENT 18 6 6 13 6 14 22 35
ROOT
ATOM     1   C14 UNL     1      -1.051   1.136  -0.493  1.00  0.00     0.127 A   
ATOM     2   C15 UNL     1      -1.898   0.265   0.157  1.00  0.00     0.045 A   
ATOM     3   N2  UNL     1      -2.089  -0.748  -0.743  1.00  0.00    -0.210 N   
ATOM     4   N4  UNL     1      -1.388  -0.526  -1.868  1.00  0.00    -0.076 NA  
ATOM     5   N5  UNL     1      -0.741   0.618  -1.726  1.00  0.00    -0.132 NA  
ATOM     6   H20 UNL     1      -2.381   0.277   1.125  1.00  0.00     0.083 HD  
ENDROOT
BRANCH   1   7
ATOM     7   C5  UNL     1      -0.450   2.444  -0.083  1.00  0.00     0.114 C   
BRANCH   7   8
ATOM     8   C4  UNL     1      -1.326   3.649  -0.482  1.00  0.00     0.064 C   
BRANCH   8   9
ATOM     9   C2  UNL     1      -2.672   3.755   0.270  1.00  0.00    -0.012 C   
ATOM     10  C1  UNL     1      -2.486   3.919   1.779  1.00  0.00     0.007 C   
ATOM     11  C3  UNL     1      -3.477   4.934  -0.284  1.00  0.00     0.007 C   
ENDBRANCH   8   9
ENDBRANCH   7   8
BRANCH   7  12
ATOM     12  N1  UNL     1       0.880   2.616  -0.783  1.00  0.00     0.249 N   
ATOM     13  H11 UNL     1       0.748   2.264  -1.742  1.00  0.00     0.199 HD  
ATOM     14  H12 UNL     1       1.142   3.600  -0.878  1.00  0.00     0.199 HD  
BRANCH  12  15
ATOM     15  C6  UNL     1       2.011   1.863  -0.184  1.00  0.00     0.164 C   
BRANCH  15  16
ATOM     16  C7  UNL     1       3.196   1.867  -1.109  1.00  0.00    -0.002 A   
ATOM     17  C8  UNL     1       3.323   0.856  -2.095  1.00  0.00     0.012 A   
ATOM     18  C12 UNL     1       4.160   2.897  -1.036  1.00  0.00     0.045 A   
ATOM     19  C9  UNL     1       4.393   0.866  -2.999  1.00  0.00     0.037 A   
ATOM     20  C11 UNL     1       5.200   2.875  -1.945  1.00  0.00     0.109 A   
ATOM     21  C10 UNL     1       5.312   1.895  -2.901  1.00  0.00     0.108 A   
ATOM     22  O1  UNL     1       6.206   3.790  -2.021  1.00  0.00    -0.316 OA  
ATOM     23  O2  UNL     1       6.397   2.068  -3.700  1.00  0.00    -0.316 OA  
ATOM     24  C13 UNL     1       6.984   3.252  -3.115  1.00  0.00     0.337 C   
ENDBRANCH  15  16
ENDBRANCH  12  15
ENDBRANCH   7  12
ENDBRANCH   1   7
BRANCH   3  25
ATOM     25  C16 UNL     1      -2.968  -1.898  -0.618  1.00  0.00     0.157 C   
BRANCH  25  26
ATOM     26  C17 UNL     1      -2.290  -3.080   0.094  1.00  0.00     0.106 C   
ATOM     27  N3  UNL     1      -3.323  -3.856   0.846  1.00  0.00    -0.308 NA  
ATOM     28  C23 UNL     1      -1.569  -4.030  -0.820  1.00  0.00    -0.001 A   
ATOM     29  C18 UNL     1      -2.738  -5.045   1.522  1.00  0.00     0.088 C   
ATOM     30  C20 UNL     1      -1.526  -5.385  -0.568  1.00  0.00     0.065 A   
ATOM     31  C22 UNL     1      -0.804  -3.859  -2.002  1.00  0.00     0.033 A   
ATOM     32  C19 UNL     1      -2.190  -6.106   0.539  1.00  0.00     0.077 C   
ATOM     33  O3  UNL     1      -0.817  -6.057  -1.498  1.00  0.00    -0.322 OA  
ATOM     34  C21 UNL     1      -0.375  -5.117  -2.374  1.00  0.00     0.136 A   
ATOM     35  H24 UNL     1      -4.019  -4.193   0.182  1.00  0.00     0.123 HD  
ENDBRANCH  25  26
ENDBRANCH   3  25
TORSDOF 8
