REMARK SMILES COCc1cccc(Cn2cc([C@H](CC(C)C)[NH2+]Cc3ccc4c(c3)OCO4)nn2)n1
REMARK SMILES IDX 10 1 11 2 12 3 29 4 30 5 9 7 8 8 4 9 5 10 31 11 6 12 7 13
REMARK SMILES IDX 3 14 2 15 1 16 13 17 14 18 15 19 16 20 17 21 18 22 19 25
REMARK SMILES IDX 20 26 21 27 25 28 22 29 24 30 23 31 26 32 28 33 27 34
REMARK H PARENT 11 6 18 23 18 24
ROOT
ATOM     1   N1  UNL     1       3.010   1.924   0.931  1.00  0.00    -0.206 N   
ATOM     2   C9  UNL     1       1.760   2.417   0.668  1.00  0.00     0.046 A   
ATOM     3   C10 UNL     1       0.992   1.907   1.690  1.00  0.00     0.127 A   
ATOM     4   N3  UNL     1       1.798   1.256   2.585  1.00  0.00    -0.132 NA  
ATOM     5   N4  UNL     1       3.038   1.291   2.122  1.00  0.00    -0.076 NA  
ATOM     6   H11 UNL     1       1.527   2.939  -0.249  1.00  0.00     0.083 HD  
ENDROOT
BRANCH   1   7
ATOM     7   C8  UNL     1       4.174   1.937   0.062  1.00  0.00     0.190 C   
BRANCH   7   8
ATOM     8   C7  UNL     1       3.967   1.088  -1.175  1.00  0.00     0.060 A   
ATOM     9   C3  UNL     1       2.801  -0.610  -2.287  1.00  0.00     0.066 A   
ATOM     10  C4  UNL     1       3.619  -0.491  -3.405  1.00  0.00     0.026 A   
ATOM     11  N5  UNL     1       2.966   0.167  -1.184  1.00  0.00    -0.254 NA  
ATOM     12  C5  UNL     1       4.639   0.454  -3.390  1.00  0.00     0.004 A   
ATOM     13  C6  UNL     1       4.822   1.248  -2.262  1.00  0.00     0.025 A   
BRANCH   9  14
ATOM     14  C2  UNL     1       1.667  -1.611  -2.261  1.00  0.00     0.215 C   
BRANCH  14  15
ATOM     15  O1  UNL     1       0.389  -0.951  -2.264  1.00  0.00    -0.378 OA  
ATOM     16  C1  UNL     1      -0.067  -0.686  -3.588  1.00  0.00     0.195 C   
ENDBRANCH  14  15
ENDBRANCH   9  14
ENDBRANCH   7   8
ENDBRANCH   1   7
BRANCH   3  17
ATOM     17  C11 UNL     1      -0.489   1.818   1.826  1.00  0.00     0.114 C   
BRANCH  17  18
ATOM     18  C12 UNL     1      -0.982   2.541   3.093  1.00  0.00     0.064 C   
BRANCH  18  19
ATOM     19  C13 UNL     1      -2.503   2.522   3.347  1.00  0.00    -0.012 C   
ATOM     20  C14 UNL     1      -2.823   3.333   4.606  1.00  0.00     0.007 C   
ATOM     21  C15 UNL     1      -3.305   3.064   2.165  1.00  0.00     0.007 C   
ENDBRANCH  18  19
ENDBRANCH  17  18
BRANCH  17  22
ATOM     22  N2  UNL     1      -0.903   0.371   1.875  1.00  0.00     0.249 N   
ATOM     23  H22 UNL     1      -0.394  -0.069   2.654  1.00  0.00     0.199 HD  
ATOM     24  H23 UNL     1      -1.899   0.273   2.075  1.00  0.00     0.199 HD  
BRANCH  22  25
ATOM     25  C16 UNL     1      -0.589  -0.418   0.646  1.00  0.00     0.164 C   
BRANCH  25  26
ATOM     26  C17 UNL     1      -1.237  -1.773   0.721  1.00  0.00    -0.002 A   
ATOM     27  C18 UNL     1      -2.527  -1.976   0.172  1.00  0.00     0.012 A   
ATOM     28  C22 UNL     1      -0.586  -2.832   1.377  1.00  0.00     0.045 A   
ATOM     29  C19 UNL     1      -3.162  -3.219   0.269  1.00  0.00     0.037 A   
ATOM     30  C21 UNL     1      -1.237  -4.045   1.452  1.00  0.00     0.109 A   
ATOM     31  C20 UNL     1      -2.488  -4.233   0.913  1.00  0.00     0.108 A   
ATOM     32  O2  UNL     1      -0.750  -5.169   2.044  1.00  0.00    -0.316 OA  
ATOM     33  O3  UNL     1      -2.947  -5.497   1.104  1.00  0.00    -0.316 OA  
ATOM     34  C23 UNL     1      -1.826  -6.100   1.789  1.00  0.00     0.337 C   
ENDBRANCH  25  26
ENDBRANCH  22  25
ENDBRANCH  17  22
ENDBRANCH   3  17
TORSDOF 10
