REMARK SMILES CC(F)(F)c1ccc(Cn2cc([C@@H]([NH2+]Cc3ccc4c(c3)OCO4)C3CCCC3)nn2)nc1
REMARK SMILES IDX 10 1 11 2 12 3 30 4 31 5 9 7 8 8 5 9 6 10 33 11 7 12 32 13
REMARK SMILES IDX 2 14 1 15 3 16 4 17 13 18 14 19 15 22 16 23 17 24 21 25
REMARK SMILES IDX 18 26 20 27 19 28 22 29 24 30 23 31 25 32 26 33 29 34 27 35
REMARK SMILES IDX 28 36
REMARK H PARENT 11 6 14 20 14 21
ROOT
ATOM     1   N1  UNL     1      -2.711  -0.367   0.447  1.00  0.00    -0.206 N   
ATOM     2   C8  UNL     1      -2.025   0.805   0.618  1.00  0.00     0.046 A   
ATOM     3   C9  UNL     1      -1.028   0.752  -0.330  1.00  0.00     0.127 A   
ATOM     4   N3  UNL     1      -1.149  -0.413  -1.046  1.00  0.00    -0.132 NA  
ATOM     5   N4  UNL     1      -2.175  -1.092  -0.557  1.00  0.00    -0.076 NA  
ATOM     6   H8  UNL     1      -2.298   1.525   1.378  1.00  0.00     0.083 HD  
ENDROOT
BRANCH   1   7
ATOM     7   C7  UNL     1      -3.890  -0.835   1.155  1.00  0.00     0.190 C   
BRANCH   7   8
ATOM     8   C6  UNL     1      -3.597  -1.004   2.620  1.00  0.00     0.060 A   
ATOM     9   C3  UNL     1      -3.027  -1.210   5.314  1.00  0.00     0.039 A   
ATOM     10  C4  UNL     1      -2.857  -2.320   4.481  1.00  0.00     0.013 A   
ATOM     11  C24 UNL     1      -3.482  -0.037   4.727  1.00  0.00     0.121 A   
ATOM     12  C5  UNL     1      -3.143  -2.221   3.120  1.00  0.00     0.026 A   
ATOM     13  N5  UNL     1      -3.759   0.091   3.409  1.00  0.00    -0.259 NA  
BRANCH   9  14
ATOM     14  C2  UNL     1      -2.731  -1.265   6.787  1.00  0.00     0.271 C   
ATOM     15  C1  UNL     1      -3.921  -1.770   7.587  1.00  0.00     0.093 C   
ATOM     16  F1  UNL     1      -1.669  -2.080   7.060  1.00  0.00    -0.202 F   
ATOM     17  F2  UNL     1      -2.380  -0.043   7.283  1.00  0.00    -0.202 F   
ENDBRANCH   9  14
ENDBRANCH   7   8
ENDBRANCH   1   7
BRANCH   3  18
ATOM     18  C10 UNL     1       0.081   1.706  -0.647  1.00  0.00     0.117 C   
BRANCH  18  19
ATOM     19  N2  UNL     1       1.167   1.000  -1.412  1.00  0.00     0.249 N   
ATOM     20  H10 UNL     1       0.692   0.386  -2.092  1.00  0.00     0.199 HD  
ATOM     21  H11 UNL     1       1.743   1.643  -1.962  1.00  0.00     0.199 HD  
BRANCH  19  22
ATOM     22  C11 UNL     1       2.058   0.128  -0.597  1.00  0.00     0.164 C   
BRANCH  22  23
ATOM     23  C12 UNL     1       2.997  -0.630  -1.491  1.00  0.00    -0.002 A   
ATOM     24  C13 UNL     1       2.606  -1.877  -2.036  1.00  0.00     0.012 A   
ATOM     25  C17 UNL     1       4.239  -0.075  -1.847  1.00  0.00     0.045 A   
ATOM     26  C14 UNL     1       3.445  -2.570  -2.915  1.00  0.00     0.037 A   
ATOM     27  C16 UNL     1       5.041  -0.785  -2.717  1.00  0.00     0.109 A   
ATOM     28  C15 UNL     1       4.658  -1.999  -3.233  1.00  0.00     0.108 A   
ATOM     29  O1  UNL     1       6.257  -0.385  -3.175  1.00  0.00    -0.316 OA  
ATOM     30  O2  UNL     1       5.585  -2.520  -4.076  1.00  0.00    -0.316 OA  
ATOM     31  C18 UNL     1       6.613  -1.505  -4.017  1.00  0.00     0.337 C   
ENDBRANCH  22  23
ENDBRANCH  19  22
ENDBRANCH  18  19
BRANCH  18  32
ATOM     32  C19 UNL     1      -0.433   2.929  -1.430  1.00  0.00     0.043 C   
ATOM     33  C20 UNL     1       0.579   4.070  -1.571  1.00  0.00     0.010 C   
ATOM     34  C23 UNL     1      -0.852   2.684  -2.880  1.00  0.00     0.010 C   
ATOM     35  C21 UNL     1       0.031   4.942  -2.696  1.00  0.00     0.001 C   
ATOM     36  C22 UNL     1      -1.000   4.093  -3.438  1.00  0.00     0.001 C   
ENDBRANCH  18  32
ENDBRANCH   3  18
TORSDOF 8
