REMARK SMILES CCc1ccc([C@@H](O)Cn2cc([C@@H]([NH2+]Cc3ccc4c(c3)OCO4)C(C)(C)C)nn2)cc1
REMARK SMILES IDX 10 1 11 2 12 3 29 4 30 5 9 7 7 8 6 9 3 10 4 11 32 12 5 13
REMARK SMILES IDX 31 14 2 15 1 16 8 17 13 19 14 20 15 23 16 24 17 25 21 26
REMARK SMILES IDX 18 27 20 28 19 29 22 30 24 31 23 32 25 33 26 34 27 35 28 36
REMARK H PARENT 11 6 8 18 14 21 14 22
ROOT
ATOM     1   N1  UNL     1       2.391   1.448   0.171  1.00  0.00    -0.209 N   
ATOM     2   C9  UNL     1       2.070   0.331  -0.547  1.00  0.00     0.046 A   
ATOM     3   C10 UNL     1       0.933   0.693  -1.234  1.00  0.00     0.127 A   
ATOM     4   N3  UNL     1       0.604   1.984  -0.909  1.00  0.00    -0.132 NA  
ATOM     5   N4  UNL     1       1.512   2.440  -0.063  1.00  0.00    -0.076 NA  
ATOM     6   H12 UNL     1       2.646  -0.582  -0.490  1.00  0.00     0.083 HD  
ENDROOT
BRANCH   1   7
ATOM     7   C8  UNL     1       3.473   1.619   1.111  1.00  0.00     0.170 C   
BRANCH   7   8
ATOM     8   C7  UNL     1       3.010   2.008   2.517  1.00  0.00     0.164 C   
BRANCH   8   9
ATOM     9   C6  UNL     1       2.020   1.039   3.134  1.00  0.00    -0.018 A   
ATOM     10  C3  UNL     1       0.181  -0.706   4.376  1.00  0.00    -0.048 A   
ATOM     11  C4  UNL     1       1.490  -1.124   4.111  1.00  0.00     0.004 A   
ATOM     12  C25 UNL     1      -0.212   0.578   3.981  1.00  0.00     0.004 A   
ATOM     13  C5  UNL     1       2.402  -0.260   3.500  1.00  0.00     0.007 A   
ATOM     14  C24 UNL     1       0.698   1.442   3.368  1.00  0.00     0.007 A   
BRANCH  10  15
ATOM     15  C2  UNL     1      -0.785  -1.611   5.099  1.00  0.00     0.032 C   
ATOM     16  C1  UNL     1      -1.598  -2.467   4.144  1.00  0.00     0.009 C   
ENDBRANCH  10  15
ENDBRANCH   8   9
BRANCH   8  17
ATOM     17  O1  UNL     1       4.161   2.092   3.363  1.00  0.00    -0.387 OA  
ATOM     18  H9  UNL     1       3.840   2.154   4.283  1.00  0.00     0.211 HD  
ENDBRANCH   8  17
ENDBRANCH   7   8
ENDBRANCH   1   7
BRANCH   3  19
ATOM     19  C11 UNL     1       0.028  -0.104  -2.119  1.00  0.00     0.120 C   
BRANCH  19  20
ATOM     20  N2  UNL     1      -1.412   0.207  -1.757  1.00  0.00     0.250 N   
ATOM     21  H14 UNL     1      -2.054  -0.180  -2.450  1.00  0.00     0.199 HD  
ATOM     22  H15 UNL     1      -1.504   1.231  -1.787  1.00  0.00     0.199 HD  
BRANCH  20  23
ATOM     23  C12 UNL     1      -1.857  -0.238  -0.400  1.00  0.00     0.164 C   
BRANCH  23  24
ATOM     24  C13 UNL     1      -1.895  -1.736  -0.265  1.00  0.00    -0.002 A   
ATOM     25  C14 UNL     1      -0.897  -2.410   0.479  1.00  0.00     0.012 A   
ATOM     26  C18 UNL     1      -2.900  -2.480  -0.906  1.00  0.00     0.045 A   
ATOM     27  C15 UNL     1      -0.894  -3.805   0.579  1.00  0.00     0.037 A   
ATOM     28  C17 UNL     1      -2.871  -3.853  -0.782  1.00  0.00     0.109 A   
ATOM     29  C16 UNL     1      -1.897  -4.497  -0.060  1.00  0.00     0.108 A   
ATOM     30  O2  UNL     1      -3.764  -4.716  -1.334  1.00  0.00    -0.316 OA  
ATOM     31  O3  UNL     1      -2.057  -5.846  -0.061  1.00  0.00    -0.316 OA  
ATOM     32  C19 UNL     1      -3.271  -5.979  -0.833  1.00  0.00     0.337 C   
ENDBRANCH  23  24
ENDBRANCH  20  23
ENDBRANCH  19  20
BRANCH  19  33
ATOM     33  C20 UNL     1       0.269   0.115  -3.654  1.00  0.00     0.010 C   
ATOM     34  C21 UNL     1      -0.031   1.555  -4.112  1.00  0.00     0.017 C   
ATOM     35  C22 UNL     1       1.738  -0.212  -4.007  1.00  0.00     0.017 C   
ATOM     36  C23 UNL     1      -0.617  -0.848  -4.480  1.00  0.00     0.017 C   
ENDBRANCH  19  33
ENDBRANCH   3  19
TORSDOF 10
