REMARK SMILES CCc1ccc([C@H](O)Cn2cc([C@@H]([NH2+]Cc3ccc4c(c3)OCO4)C(C)(C)C)nn2)cc1
REMARK SMILES IDX 10 1 11 2 12 3 29 4 30 5 9 7 7 8 6 9 3 10 4 11 32 12 5 13
REMARK SMILES IDX 31 14 2 15 1 16 8 17 13 19 14 20 15 23 16 24 17 25 21 26
REMARK SMILES IDX 18 27 20 28 19 29 22 30 24 31 23 32 25 33 26 34 27 35 28 36
REMARK H PARENT 11 6 8 18 14 21 14 22
ROOT
ATOM     1   N1  UNL     1      -0.755  -0.536  -2.506  1.00  0.00    -0.209 N   
ATOM     2   C9  UNL     1      -0.961  -0.279  -1.179  1.00  0.00     0.046 A   
ATOM     3   C10 UNL     1      -0.253  -1.270  -0.535  1.00  0.00     0.127 A   
ATOM     4   N3  UNL     1       0.302  -2.105  -1.473  1.00  0.00    -0.132 NA  
ATOM     5   N4  UNL     1      -0.023  -1.652  -2.673  1.00  0.00    -0.076 NA  
ATOM     6   H12 UNL     1      -1.542   0.566  -0.834  1.00  0.00     0.083 HD  
ENDROOT
BRANCH   1   7
ATOM     7   C8  UNL     1      -1.222   0.218  -3.646  1.00  0.00     0.170 C   
BRANCH   7   8
ATOM     8   C7  UNL     1      -0.119   1.061  -4.292  1.00  0.00     0.164 C   
BRANCH   8   9
ATOM     9   C6  UNL     1       0.442   2.113  -3.356  1.00  0.00    -0.018 A   
ATOM     10  C3  UNL     1       1.480   4.032  -1.567  1.00  0.00    -0.048 A   
ATOM     11  C4  UNL     1       2.244   2.919  -1.937  1.00  0.00     0.004 A   
ATOM     12  C25 UNL     1       0.196   4.183  -2.105  1.00  0.00     0.004 A   
ATOM     13  C5  UNL     1       1.729   1.967  -2.820  1.00  0.00     0.007 A   
ATOM     14  C24 UNL     1      -0.319   3.234  -2.989  1.00  0.00     0.007 A   
BRANCH  10  15
ATOM     15  C2  UNL     1       2.046   5.077  -0.639  1.00  0.00     0.032 C   
ATOM     16  C1  UNL     1       2.720   6.207  -1.404  1.00  0.00     0.009 C   
ENDBRANCH  10  15
ENDBRANCH   8   9
BRANCH   8  17
ATOM     17  O1  UNL     1      -0.653   1.701  -5.454  1.00  0.00    -0.387 OA  
ATOM     18  H9  UNL     1      -0.017   2.391  -5.722  1.00  0.00     0.211 HD  
ENDBRANCH   8  17
ENDBRANCH   7   8
ENDBRANCH   1   7
BRANCH   3  19
ATOM     19  C11 UNL     1      -0.079  -1.578   0.921  1.00  0.00     0.120 C   
BRANCH  19  20
ATOM     20  N2  UNL     1      -0.021  -3.086   1.089  1.00  0.00     0.250 N   
ATOM     21  H14 UNL     1       0.622  -3.427   0.360  1.00  0.00     0.199 HD  
ATOM     22  H15 UNL     1       0.382  -3.348   1.991  1.00  0.00     0.199 HD  
BRANCH  20  23
ATOM     23  C12 UNL     1      -1.313  -3.815   0.913  1.00  0.00     0.164 C   
BRANCH  23  24
ATOM     24  C13 UNL     1      -2.283  -3.549   2.031  1.00  0.00    -0.002 A   
ATOM     25  C14 UNL     1      -3.437  -2.760   1.802  1.00  0.00     0.012 A   
ATOM     26  C18 UNL     1      -2.035  -4.053   3.320  1.00  0.00     0.045 A   
ATOM     27  C15 UNL     1      -4.325  -2.465   2.842  1.00  0.00     0.037 A   
ATOM     28  C17 UNL     1      -2.929  -3.742   4.323  1.00  0.00     0.109 A   
ATOM     29  C16 UNL     1      -4.041  -2.969   4.093  1.00  0.00     0.108 A   
ATOM     30  O2  UNL     1      -2.831  -4.139   5.619  1.00  0.00    -0.316 OA  
ATOM     31  O3  UNL     1      -4.783  -2.782   5.214  1.00  0.00    -0.316 OA  
ATOM     32  C19 UNL     1      -4.020  -3.538   6.181  1.00  0.00     0.337 C   
ENDBRANCH  23  24
ENDBRANCH  20  23
ENDBRANCH  19  20
BRANCH  19  33
ATOM     33  C20 UNL     1       1.182  -0.909   1.575  1.00  0.00     0.010 C   
ATOM     34  C21 UNL     1       2.507  -1.419   0.974  1.00  0.00     0.017 C   
ATOM     35  C22 UNL     1       1.203  -1.180   3.098  1.00  0.00     0.017 C   
ATOM     36  C23 UNL     1       1.125   0.625   1.394  1.00  0.00     0.017 C   
ENDBRANCH  19  33
ENDBRANCH   3  19
TORSDOF 10
