REMARK SMILES NS(=O)(=O)c1ccccc1-n1cc([C@@H]([NH2+]Cc2ccc3c(c2)OCO3)C2CCCCC2)nn1
REMARK SMILES IDX 11 1 12 2 13 3 32 4 33 5 10 6 5 7 6 8 7 9 9 10 8 11 2 12
REMARK SMILES IDX 3 13 4 14 1 15 14 18 15 19 16 22 17 23 18 24 22 25 19 26
REMARK SMILES IDX 21 27 20 28 23 29 25 30 24 31 26 32 27 33 31 34 28 35 30 36
REMARK SMILES IDX 29 37
REMARK H PARENT 1 16 1 17 15 20 15 21
ROOT
ATOM     1   N2  UNL     1      -1.538   1.445  -0.096  1.00  0.00    -0.168 N   
ATOM     2   C7  UNL     1      -0.428   0.663  -0.355  1.00  0.00     0.135 A   
ATOM     3   C8  UNL     1      -0.918  -0.463  -0.971  1.00  0.00     0.127 A   
ATOM     4   N4  UNL     1      -2.283  -0.385  -1.025  1.00  0.00    -0.131 NA  
ATOM     5   N5  UNL     1      -2.653   0.744  -0.438  1.00  0.00    -0.071 NA  
ENDROOT
BRANCH   1   6
ATOM     6   C6  UNL     1      -1.611   2.679   0.597  1.00  0.00     0.181 A   
ATOM     7   C1  UNL     1      -0.601   3.659   0.538  1.00  0.00     0.362 A   
ATOM     8   C2  UNL     1      -0.665   4.776   1.386  1.00  0.00     0.140 A   
ATOM     9   C3  UNL     1      -1.742   4.936   2.258  1.00  0.00     0.013 A   
ATOM     10  C5  UNL     1      -2.721   2.887   1.432  1.00  0.00     0.039 A   
ATOM     11  C4  UNL     1      -2.780   4.006   2.263  1.00  0.00     0.003 A   
BRANCH   7  12
ATOM     12  S1  UNL     1       0.607   3.672  -0.763  1.00  0.00    -0.112 S   
ATOM     13  O1  UNL     1      -0.030   3.222  -1.978  1.00  0.00    -0.479 OA  
ATOM     14  O2  UNL     1       1.813   3.065  -0.260  1.00  0.00    -0.479 OA  
BRANCH  12  15
ATOM     15  N1  UNL     1       0.953   5.290  -1.009  1.00  0.00    -0.094 NA  
ATOM     16  H1  UNL     1       0.570   5.638  -1.891  1.00  0.00     0.263 HD  
ATOM     17  H2  UNL     1       1.951   5.479  -0.889  1.00  0.00     0.263 HD  
ENDBRANCH  12  15
ENDBRANCH   7  12
ENDBRANCH   1   6
BRANCH   3  18
ATOM     18  C9  UNL     1      -0.227  -1.716  -1.407  1.00  0.00     0.117 C   
BRANCH  18  19
ATOM     19  N3  UNL     1      -1.091  -2.889  -0.970  1.00  0.00     0.249 N   
ATOM     20  H9  UNL     1      -1.172  -3.596  -1.705  1.00  0.00     0.199 HD  
ATOM     21  H10 UNL     1      -2.046  -2.507  -0.870  1.00  0.00     0.199 HD  
BRANCH  19  22
ATOM     22  C10 UNL     1      -0.720  -3.539   0.321  1.00  0.00     0.164 C   
BRANCH  22  23
ATOM     23  C11 UNL     1      -0.691  -2.600   1.496  1.00  0.00    -0.002 A   
ATOM     24  C12 UNL     1       0.543  -2.252   2.099  1.00  0.00     0.012 A   
ATOM     25  C16 UNL     1      -1.877  -2.018   1.973  1.00  0.00     0.045 A   
ATOM     26  C13 UNL     1       0.599  -1.320   3.140  1.00  0.00     0.037 A   
ATOM     27  C15 UNL     1      -1.786  -1.100   2.999  1.00  0.00     0.109 A   
ATOM     28  C14 UNL     1      -0.584  -0.757   3.563  1.00  0.00     0.108 A   
ATOM     29  O3  UNL     1      -2.826  -0.421   3.547  1.00  0.00    -0.316 OA  
ATOM     30  O4  UNL     1      -0.713   0.180   4.537  1.00  0.00    -0.316 OA  
ATOM     31  C17 UNL     1      -2.147   0.346   4.565  1.00  0.00     0.337 C   
ENDBRANCH  22  23
ENDBRANCH  19  22
ENDBRANCH  18  19
BRANCH  18  32
ATOM     32  C18 UNL     1       0.009  -1.786  -2.941  1.00  0.00     0.043 C   
ATOM     33  C19 UNL     1       0.800  -3.043  -3.374  1.00  0.00     0.010 C   
ATOM     34  C23 UNL     1       0.755  -0.548  -3.489  1.00  0.00     0.010 C   
ATOM     35  C20 UNL     1       2.264  -3.013  -2.929  1.00  0.00     0.001 C   
ATOM     36  C22 UNL     1       2.209  -0.481  -3.021  1.00  0.00     0.001 C   
ATOM     37  C21 UNL     1       2.973  -1.747  -3.393  1.00  0.00     0.000 C   
ENDBRANCH  18  32
ENDBRANCH   3  18
TORSDOF 8
