REMARK SMILES Cc1ccncc1CCn1cc([C@@H]([NH2+]Cc2ccc3c(c2)OCO3)C2CCCC2)nn1
REMARK SMILES IDX 10 1 11 2 12 3 30 4 31 5 9 7 8 8 7 9 2 10 3 11 4 12 6 13
REMARK SMILES IDX 5 14 1 15 13 16 14 17 15 20 16 21 17 22 21 23 18 24 20 25
REMARK SMILES IDX 19 26 22 27 24 28 23 29 25 30 26 31 29 32 27 33 28 34
REMARK H PARENT 11 6 14 18 14 19
ROOT
ATOM     1   N2  UNL     1      -0.511  -3.340  -0.081  1.00  0.00    -0.212 N   
ATOM     2   C9  UNL     1       0.558  -2.530   0.199  1.00  0.00     0.045 A   
ATOM     3   C10 UNL     1       0.735  -1.802  -0.960  1.00  0.00     0.127 A   
ATOM     4   N4  UNL     1      -0.112  -2.294  -1.922  1.00  0.00    -0.132 NA  
ATOM     5   N5  UNL     1      -0.865  -3.235  -1.373  1.00  0.00    -0.076 NA  
ATOM     6   H11 UNL     1       0.970  -2.454   1.196  1.00  0.00     0.083 HD  
ENDROOT
BRANCH   1   7
ATOM     7   C8  UNL     1      -1.417  -3.940   0.882  1.00  0.00     0.139 C   
BRANCH   7   8
ATOM     8   C7  UNL     1      -2.658  -3.065   1.154  1.00  0.00     0.059 C   
BRANCH   8   9
ATOM     9   C6  UNL     1      -2.303  -1.646   1.553  1.00  0.00    -0.025 A   
ATOM     10  C2  UNL     1      -2.029  -1.252   2.870  1.00  0.00    -0.045 A   
ATOM     11  C3  UNL     1      -1.585   0.058   3.094  1.00  0.00     0.024 A   
ATOM     12  C4  UNL     1      -1.381   0.901   2.011  1.00  0.00     0.111 A   
ATOM     13  C5  UNL     1      -2.123  -0.693   0.545  1.00  0.00     0.115 A   
ATOM     14  N1  UNL     1      -1.583   0.538   0.723  1.00  0.00    -0.264 NA  
ATOM     15  C1  UNL     1      -2.217  -2.177   4.040  1.00  0.00     0.045 C   
ENDBRANCH   8   9
ENDBRANCH   7   8
ENDBRANCH   1   7
BRANCH   3  16
ATOM     16  C11 UNL     1       1.530  -0.569  -1.251  1.00  0.00     0.117 C   
BRANCH  16  17
ATOM     17  N3  UNL     1       0.652   0.659  -1.214  1.00  0.00     0.249 N   
ATOM     18  H13 UNL     1      -0.029   0.587  -0.430  1.00  0.00     0.199 HD  
ATOM     19  H14 UNL     1       1.194   1.503  -1.016  1.00  0.00     0.199 HD  
BRANCH  17  20
ATOM     20  C12 UNL     1      -0.156   0.899  -2.444  1.00  0.00     0.164 C   
BRANCH  20  21
ATOM     21  C13 UNL     1      -0.662   2.316  -2.479  1.00  0.00    -0.002 A   
ATOM     22  C14 UNL     1       0.145   3.347  -3.017  1.00  0.00     0.012 A   
ATOM     23  C18 UNL     1      -1.916   2.636  -1.932  1.00  0.00     0.045 A   
ATOM     24  C15 UNL     1      -0.291   4.677  -3.019  1.00  0.00     0.037 A   
ATOM     25  C17 UNL     1      -2.318   3.955  -1.951  1.00  0.00     0.109 A   
ATOM     26  C16 UNL     1      -1.529   4.948  -2.478  1.00  0.00     0.108 A   
ATOM     27  O1  UNL     1      -3.496   4.430  -1.467  1.00  0.00    -0.316 OA  
ATOM     28  O2  UNL     1      -2.109   6.173  -2.392  1.00  0.00    -0.316 OA  
ATOM     29  C19 UNL     1      -3.371   5.837  -1.776  1.00  0.00     0.337 C   
ENDBRANCH  20  21
ENDBRANCH  17  20
ENDBRANCH  16  17
BRANCH  16  30
ATOM     30  C20 UNL     1       2.765  -0.379  -0.344  1.00  0.00     0.043 C   
ATOM     31  C21 UNL     1       2.501   0.084   1.103  1.00  0.00     0.010 C   
ATOM     32  C24 UNL     1       3.778   0.634  -0.902  1.00  0.00     0.010 C   
ATOM     33  C22 UNL     1       3.497   1.208   1.384  1.00  0.00     0.001 C   
ATOM     34  C23 UNL     1       4.572   1.054   0.323  1.00  0.00     0.001 C   
ENDBRANCH  16  30
ENDBRANCH   3  16
TORSDOF 8
