REMARK SMILES FC(F)(F)c1cc(Cn2cc([C@@H]([NH2+]Cc3ccc4c(c3)OCO4)C3CCCC3)nn2)[nH]n1
REMARK SMILES IDX 9 1 10 2 11 3 29 4 30 5 8 7 7 8 5 9 6 10 32 11 31 12 2 14
REMARK SMILES IDX 1 15 3 16 4 17 12 18 13 19 14 22 15 23 16 24 20 25 17 26
REMARK SMILES IDX 19 27 18 28 21 29 23 30 22 31 24 32 25 33 28 34 26 35 27 36
REMARK H PARENT 10 6 31 13 13 20 13 21
ROOT
ATOM     1   N1  UNL     1       0.566   1.811   2.115  1.00  0.00    -0.206 N   
ATOM     2   C6  UNL     1       1.083   1.016   1.131  1.00  0.00     0.046 A   
ATOM     3   C7  UNL     1       0.840   1.720  -0.028  1.00  0.00     0.127 A   
ATOM     4   N3  UNL     1       0.201   2.893   0.283  1.00  0.00    -0.132 NA  
ATOM     5   N4  UNL     1       0.026   2.932   1.594  1.00  0.00    -0.076 NA  
ATOM     6   H4  UNL     1       1.530   0.053   1.339  1.00  0.00     0.083 HD  
ENDROOT
BRANCH   1   7
ATOM     7   C5  UNL     1       0.428   1.517   3.534  1.00  0.00     0.186 C   
BRANCH   7   8
ATOM     8   C4  UNL     1      -0.877   0.848   3.784  1.00  0.00     0.047 A   
ATOM     9   C2  UNL     1      -2.625  -0.473   4.203  1.00  0.00     0.164 A   
ATOM     10  C3  UNL     1      -1.204  -0.413   4.231  1.00  0.00     0.057 A   
ATOM     11  N6  UNL     1      -3.135   0.691   3.750  1.00  0.00    -0.179 NA  
ATOM     12  N5  UNL     1      -2.070   1.482   3.566  1.00  0.00    -0.240 N   
ATOM     13  H24 UNL     1      -2.227   2.438   3.251  1.00  0.00     0.175 HD  
BRANCH   9  14
ATOM     14  C1  UNL     1      -3.480  -1.661   4.574  1.00  0.00     0.434 C   
ATOM     15  F1  UNL     1      -3.838  -2.380   3.476  1.00  0.00    -0.164 F   
ATOM     16  F2  UNL     1      -2.808  -2.519   5.391  1.00  0.00    -0.164 F   
ATOM     17  F3  UNL     1      -4.623  -1.320   5.222  1.00  0.00    -0.164 F   
ENDBRANCH   9  14
ENDBRANCH   7   8
ENDBRANCH   1   7
BRANCH   3  18
ATOM     18  C8  UNL     1       1.088   1.372  -1.460  1.00  0.00     0.117 C   
BRANCH  18  19
ATOM     19  N2  UNL     1      -0.110   1.756  -2.304  1.00  0.00     0.249 N   
ATOM     20  H6  UNL     1       0.107   1.646  -3.298  1.00  0.00     0.199 HD  
ATOM     21  H7  UNL     1      -0.277   2.757  -2.136  1.00  0.00     0.199 HD  
BRANCH  19  22
ATOM     22  C9  UNL     1      -1.389   1.036  -2.017  1.00  0.00     0.164 C   
BRANCH  22  23
ATOM     23  C10 UNL     1      -1.296  -0.444  -2.263  1.00  0.00    -0.002 A   
ATOM     24  C11 UNL     1      -1.239  -0.951  -3.584  1.00  0.00     0.012 A   
ATOM     25  C15 UNL     1      -1.222  -1.334  -1.177  1.00  0.00     0.045 A   
ATOM     26  C12 UNL     1      -1.101  -2.322  -3.822  1.00  0.00     0.037 A   
ATOM     27  C14 UNL     1      -1.081  -2.679  -1.446  1.00  0.00     0.109 A   
ATOM     28  C13 UNL     1      -1.021  -3.159  -2.731  1.00  0.00     0.108 A   
ATOM     29  O1  UNL     1      -0.979  -3.664  -0.516  1.00  0.00    -0.316 OA  
ATOM     30  O2  UNL     1      -0.882  -4.509  -2.773  1.00  0.00    -0.316 OA  
ATOM     31  C16 UNL     1      -0.904  -4.833  -1.365  1.00  0.00     0.337 C   
ENDBRANCH  22  23
ENDBRANCH  19  22
ENDBRANCH  18  19
BRANCH  18  32
ATOM     32  C17 UNL     1       2.328   2.096  -2.021  1.00  0.00     0.043 C   
ATOM     33  C18 UNL     1       3.630   1.710  -1.311  1.00  0.00     0.010 C   
ATOM     34  C21 UNL     1       2.647   1.759  -3.483  1.00  0.00     0.010 C   
ATOM     35  C19 UNL     1       4.708   2.224  -2.252  1.00  0.00     0.001 C   
ATOM     36  C20 UNL     1       4.146   2.010  -3.654  1.00  0.00     0.001 C   
ENDBRANCH  18  32
ENDBRANCH   3  18
TORSDOF 8
