REMARK SMILES Cc1csc([C@H](CO)n2cc([C@@H]([NH2+]Cc3ccc4c(c3)OCO4)C3CCCC3)nn2)c1
REMARK SMILES IDX 9 1 10 2 11 3 29 4 30 5 6 7 5 8 2 9 3 10 31 11 4 12 1 13
REMARK SMILES IDX 7 14 8 15 12 17 13 18 14 21 15 22 16 23 20 24 17 25 19 26
REMARK SMILES IDX 18 27 21 28 23 29 22 30 24 31 25 32 28 33 26 34 27 35
REMARK H PARENT 10 6 8 16 13 19 13 20
ROOT
ATOM     1   N1  UNL     1       3.208   0.494   0.872  1.00  0.00    -0.202 N   
ATOM     2   C7  UNL     1       2.294  -0.131   0.065  1.00  0.00     0.046 A   
ATOM     3   C8  UNL     1       1.090   0.073   0.698  1.00  0.00     0.127 A   
ATOM     4   N3  UNL     1       1.303   0.760   1.864  1.00  0.00    -0.132 NA  
ATOM     5   N4  UNL     1       2.601   0.993   1.972  1.00  0.00    -0.075 NA  
ATOM     6   H9  UNL     1       2.579  -0.632  -0.850  1.00  0.00     0.083 HD  
ENDROOT
BRANCH   1   7
ATOM     7   C5  UNL     1       4.653   0.636   0.704  1.00  0.00     0.162 C   
BRANCH   7   8
ATOM     8   C4  UNL     1       5.005   0.988  -0.729  1.00  0.00     0.014 A   
ATOM     9   C2  UNL     1       5.656   0.898  -2.988  1.00  0.00    -0.044 A   
ATOM     10  C3  UNL     1       5.403   2.244  -2.818  1.00  0.00     0.049 A   
ATOM     11  C23 UNL     1       5.418   0.178  -1.772  1.00  0.00     0.017 A   
ATOM     12  S1  UNL     1       4.899   2.627  -1.235  1.00  0.00    -0.100 S   
ATOM     13  C1  UNL     1       6.113   0.270  -4.262  1.00  0.00     0.045 C   
ENDBRANCH   7   8
BRANCH   7  14
ATOM     14  C6  UNL     1       5.402  -0.590   1.258  1.00  0.00     0.186 C   
BRANCH  14  15
ATOM     15  O1  UNL     1       4.980  -1.821   0.662  1.00  0.00    -0.394 OA  
ATOM     16  H8  UNL     1       5.590  -2.511   0.982  1.00  0.00     0.210 HD  
ENDBRANCH  14  15
ENDBRANCH   7  14
ENDBRANCH   1   7
BRANCH   3  17
ATOM     17  C9  UNL     1      -0.290  -0.370   0.340  1.00  0.00     0.117 C   
BRANCH  17  18
ATOM     18  N2  UNL     1      -1.038  -0.776   1.593  1.00  0.00     0.249 N   
ATOM     19  H11 UNL     1      -0.966   0.021   2.240  1.00  0.00     0.199 HD  
ATOM     20  H12 UNL     1      -2.031  -0.916   1.389  1.00  0.00     0.199 HD  
BRANCH  18  21
ATOM     21  C10 UNL     1      -0.520  -1.980   2.309  1.00  0.00     0.164 C   
BRANCH  21  22
ATOM     22  C11 UNL     1      -0.665  -3.244   1.508  1.00  0.00    -0.002 A   
ATOM     23  C12 UNL     1       0.472  -3.851   0.922  1.00  0.00     0.012 A   
ATOM     24  C16 UNL     1      -1.934  -3.813   1.306  1.00  0.00     0.045 A   
ATOM     25  C13 UNL     1       0.349  -5.005   0.141  1.00  0.00     0.037 A   
ATOM     26  C15 UNL     1      -2.020  -4.950   0.530  1.00  0.00     0.109 A   
ATOM     27  C14 UNL     1      -0.912  -5.529  -0.037  1.00  0.00     0.108 A   
ATOM     28  O2  UNL     1      -3.165  -5.619   0.234  1.00  0.00    -0.316 OA  
ATOM     29  O3  UNL     1      -1.220  -6.636  -0.762  1.00  0.00    -0.316 OA  
ATOM     30  C17 UNL     1      -2.648  -6.709  -0.563  1.00  0.00     0.337 C   
ENDBRANCH  21  22
ENDBRANCH  18  21
ENDBRANCH  17  18
BRANCH  17  31
ATOM     31  C18 UNL     1      -1.088   0.749  -0.360  1.00  0.00     0.043 C   
ATOM     32  C19 UNL     1      -0.479   1.183  -1.698  1.00  0.00     0.010 C   
ATOM     33  C22 UNL     1      -2.506   0.343  -0.780  1.00  0.00     0.010 C   
ATOM     34  C20 UNL     1      -1.600   1.961  -2.373  1.00  0.00     0.001 C   
ATOM     35  C21 UNL     1      -2.897   1.322  -1.884  1.00  0.00     0.001 C   
ENDBRANCH  17  31
ENDBRANCH   3  17
TORSDOF 9
