REMARK SMILES Cc1csc([C@@H](CO)n2cc([C@@H]([NH2+]Cc3ccc4c(c3)OCO4)C3CCCC3)nn2)c1
REMARK SMILES IDX 9 1 10 2 11 3 29 4 30 5 6 7 5 8 2 9 3 10 31 11 4 12 1 13
REMARK SMILES IDX 7 14 8 15 12 17 13 18 14 21 15 22 16 23 20 24 17 25 19 26
REMARK SMILES IDX 18 27 21 28 23 29 22 30 24 31 25 32 28 33 26 34 27 35
REMARK H PARENT 10 6 8 16 13 19 13 20
ROOT
ATOM     1   N1  UNL     1      -1.014   2.160  -1.955  1.00  0.00    -0.202 N   
ATOM     2   C7  UNL     1      -0.598   1.065  -1.243  1.00  0.00     0.046 A   
ATOM     3   C8  UNL     1      -1.731   0.632  -0.597  1.00  0.00     0.127 A   
ATOM     4   N3  UNL     1      -2.785   1.433  -0.947  1.00  0.00    -0.132 NA  
ATOM     5   N4  UNL     1      -2.339   2.359  -1.781  1.00  0.00    -0.075 NA  
ATOM     6   H9  UNL     1       0.432   0.737  -1.241  1.00  0.00     0.083 HD  
ENDROOT
BRANCH   1   7
ATOM     7   C5  UNL     1      -0.216   3.117  -2.719  1.00  0.00     0.162 C   
BRANCH   7   8
ATOM     8   C4  UNL     1       0.837   3.738  -1.820  1.00  0.00     0.014 A   
ATOM     9   C2  UNL     1       2.820   4.202  -0.635  1.00  0.00    -0.044 A   
ATOM     10  C3  UNL     1       1.969   5.183  -0.164  1.00  0.00     0.049 A   
ATOM     11  C23 UNL     1       2.153   3.371  -1.596  1.00  0.00     0.017 A   
ATOM     12  S1  UNL     1       0.413   5.101  -0.859  1.00  0.00    -0.100 S   
ATOM     13  C1  UNL     1       4.238   4.027  -0.201  1.00  0.00     0.045 C   
ENDBRANCH   7   8
BRANCH   7  14
ATOM     14  C6  UNL     1       0.326   2.514  -4.027  1.00  0.00     0.186 C   
BRANCH  14  15
ATOM     15  O1  UNL     1       1.145   1.360  -3.823  1.00  0.00    -0.394 OA  
ATOM     16  H8  UNL     1       1.486   1.095  -4.700  1.00  0.00     0.210 HD  
ENDBRANCH  14  15
ENDBRANCH   7  14
ENDBRANCH   1   7
BRANCH   3  17
ATOM     17  C9  UNL     1      -1.915  -0.441   0.421  1.00  0.00     0.117 C   
BRANCH  17  18
ATOM     18  N2  UNL     1      -2.816   0.045   1.532  1.00  0.00     0.249 N   
ATOM     19  H11 UNL     1      -3.654   0.433   1.078  1.00  0.00     0.199 HD  
ATOM     20  H12 UNL     1      -3.121  -0.732   2.122  1.00  0.00     0.199 HD  
BRANCH  18  21
ATOM     21  C10 UNL     1      -2.265   1.134   2.397  1.00  0.00     0.164 C   
BRANCH  21  22
ATOM     22  C11 UNL     1      -1.040   0.719   3.165  1.00  0.00    -0.002 A   
ATOM     23  C12 UNL     1      -1.144  -0.183   4.253  1.00  0.00     0.012 A   
ATOM     24  C16 UNL     1       0.225   1.202   2.784  1.00  0.00     0.045 A   
ATOM     25  C13 UNL     1      -0.006  -0.602   4.949  1.00  0.00     0.037 A   
ATOM     26  C15 UNL     1       1.328   0.766   3.491  1.00  0.00     0.109 A   
ATOM     27  C14 UNL     1       1.216  -0.112   4.541  1.00  0.00     0.108 A   
ATOM     28  O2  UNL     1       2.614   1.128   3.250  1.00  0.00    -0.316 OA  
ATOM     29  O3  UNL     1       2.418  -0.410   5.098  1.00  0.00    -0.316 OA  
ATOM     30  C17 UNL     1       3.303   0.399   4.293  1.00  0.00     0.337 C   
ENDBRANCH  21  22
ENDBRANCH  18  21
ENDBRANCH  17  18
BRANCH  17  31
ATOM     31  C18 UNL     1      -2.461  -1.742  -0.199  1.00  0.00     0.043 C   
ATOM     32  C19 UNL     1      -2.364  -2.960   0.732  1.00  0.00     0.010 C   
ATOM     33  C22 UNL     1      -3.924  -1.722  -0.685  1.00  0.00     0.010 C   
ATOM     34  C20 UNL     1      -3.403  -3.917   0.176  1.00  0.00     0.001 C   
ATOM     35  C21 UNL     1      -4.569  -2.999  -0.145  1.00  0.00     0.001 C   
ENDBRANCH  17  31
ENDBRANCH   3  17
TORSDOF 9
