REMARK SMILES CC(C)[C@H]([NH2+]Cc1ccc2c(c1)OCO2)c1cn(-c2cc(CO)cc(CO)c2)nn1
REMARK SMILES IDX 16 1 17 2 18 3 29 4 30 5 4 6 2 7 1 8 3 9 5 10 6 13 7 14 8 15
REMARK SMILES IDX 12 16 9 17 11 18 10 19 13 20 15 21 14 22 19 23 20 24 28 25
REMARK SMILES IDX 21 26 25 27 24 28 22 29 23 30 26 32 27 33
REMARK H PARENT 5 11 5 12 23 31 27 34
ROOT
ATOM     1   C13 UNL     1      -1.123   0.448  -0.832  1.00  0.00     0.127 A   
ATOM     2   C14 UNL     1      -0.822   0.371  -2.173  1.00  0.00     0.135 A   
ATOM     3   N2  UNL     1       0.516   0.708  -2.263  1.00  0.00    -0.181 N   
ATOM     4   N3  UNL     1       0.986   0.952  -1.011  1.00  0.00    -0.071 NA  
ATOM     5   N4  UNL     1      -0.000   0.810  -0.143  1.00  0.00    -0.131 NA  
ENDROOT
BRANCH   1   6
ATOM     6   C4  UNL     1      -2.395   0.187  -0.087  1.00  0.00     0.117 C   
BRANCH   6   7
ATOM     7   C2  UNL     1      -3.395   1.367  -0.207  1.00  0.00     0.037 C   
ATOM     8   C1  UNL     1      -4.797   0.974   0.272  1.00  0.00     0.014 C   
ATOM     9   C3  UNL     1      -2.940   2.642   0.515  1.00  0.00     0.014 C   
ENDBRANCH   6   7
BRANCH   6  10
ATOM     10  N1  UNL     1      -2.105  -0.105   1.361  1.00  0.00     0.249 N   
ATOM     11  H9  UNL     1      -1.392   0.575   1.666  1.00  0.00     0.199 HD  
ATOM     12  H10 UNL     1      -2.921   0.051   1.960  1.00  0.00     0.199 HD  
BRANCH  10  13
ATOM     13  C5  UNL     1      -1.556  -1.462   1.640  1.00  0.00     0.164 C   
BRANCH  13  14
ATOM     14  C6  UNL     1      -1.197  -1.590   3.093  1.00  0.00    -0.002 A   
ATOM     15  C7  UNL     1       0.083  -1.187   3.545  1.00  0.00     0.012 A   
ATOM     16  C11 UNL     1      -2.145  -2.053   4.021  1.00  0.00     0.045 A   
ATOM     17  C8  UNL     1       0.420  -1.255   4.901  1.00  0.00     0.037 A   
ATOM     18  C10 UNL     1      -1.780  -2.106   5.350  1.00  0.00     0.109 A   
ATOM     19  C9  UNL     1      -0.534  -1.719   5.778  1.00  0.00     0.108 A   
ATOM     20  O1  UNL     1      -2.574  -2.526   6.370  1.00  0.00    -0.316 OA  
ATOM     21  O2  UNL     1      -0.385  -1.849   7.122  1.00  0.00    -0.316 OA  
ATOM     22  C12 UNL     1      -1.674  -2.382   7.494  1.00  0.00     0.337 C   
ENDBRANCH  13  14
ENDBRANCH  10  13
ENDBRANCH   6  10
ENDBRANCH   1   6
BRANCH   3  23
ATOM     23  C15 UNL     1       1.344   0.793  -3.410  1.00  0.00     0.058 A   
ATOM     24  C16 UNL     1       0.829   0.542  -4.689  1.00  0.00     0.032 A   
ATOM     25  C22 UNL     1       2.697   1.131  -3.264  1.00  0.00     0.032 A   
ATOM     26  C17 UNL     1       1.657   0.608  -5.821  1.00  0.00    -0.020 A   
ATOM     27  C20 UNL     1       3.535   1.220  -4.385  1.00  0.00    -0.020 A   
ATOM     28  C19 UNL     1       3.007   0.956  -5.655  1.00  0.00     0.012 A   
BRANCH  26  29
ATOM     29  C18 UNL     1       1.124   0.362  -7.212  1.00  0.00     0.191 C   
BRANCH  29  30
ATOM     30  O3  UNL     1      -0.116  -0.336  -7.173  1.00  0.00    -0.392 OA  
ATOM     31  H22 UNL     1      -0.361  -0.507  -8.099  1.00  0.00     0.211 HD  
ENDBRANCH  29  30
ENDBRANCH  26  29
BRANCH  27  32
ATOM     32  C21 UNL     1       4.988   1.576  -4.208  1.00  0.00     0.191 C   
BRANCH  32  33
ATOM     33  O4  UNL     1       5.665   0.525  -3.534  1.00  0.00    -0.392 OA  
ATOM     34  H26 UNL     1       5.293  -0.314  -3.856  1.00  0.00     0.211 HD  
ENDBRANCH  32  33
ENDBRANCH  27  32
ENDBRANCH   3  23
TORSDOF 10
