REMARK SMILES Cc1nc(C(C)C)oc1Cn1cc([C@@H]([NH2+]Cc2ccc3c(c2)OCO3)C2CCCCC2)nn1
REMARK SMILES IDX 11 1 12 2 13 3 32 4 33 5 10 7 9 8 2 9 3 10 4 11 8 12 1 13
REMARK SMILES IDX 5 14 6 15 7 16 14 17 15 18 16 21 17 22 18 23 22 24 19 25
REMARK SMILES IDX 21 26 20 27 23 28 25 29 24 30 26 31 27 32 31 33 28 34 30 35
REMARK SMILES IDX 29 36
REMARK H PARENT 12 6 15 19 15 20
ROOT
ATOM     1   N2  UNL     1       0.354  -1.640   0.532  1.00  0.00    -0.206 N   
ATOM     2   C9  UNL     1      -0.690  -0.866   0.103  1.00  0.00     0.046 A   
ATOM     3   C10 UNL     1      -0.579  -0.892  -1.270  1.00  0.00     0.127 A   
ATOM     4   N4  UNL     1       0.502  -1.659  -1.622  1.00  0.00    -0.132 NA  
ATOM     5   N5  UNL     1       1.055  -2.122  -0.514  1.00  0.00    -0.076 NA  
ATOM     6   H13 UNL     1      -1.359  -0.364   0.788  1.00  0.00     0.083 HD  
ENDROOT
BRANCH   1   7
ATOM     7   C8  UNL     1       0.750  -1.949   1.895  1.00  0.00     0.197 C   
BRANCH   7   8
ATOM     8   C7  UNL     1       1.773  -0.989   2.357  1.00  0.00     0.102 A   
ATOM     9   C2  UNL     1       3.111  -0.789   2.086  1.00  0.00     0.068 A   
ATOM     10  N1  UNL     1       3.570   0.277   2.821  1.00  0.00    -0.231 NA  
ATOM     11  C3  UNL     1       2.528   0.663   3.529  1.00  0.00     0.150 A   
ATOM     12  O1  UNL     1       1.387  -0.056   3.281  1.00  0.00    -0.296 OA  
ATOM     13  C1  UNL     1       4.011  -1.522   1.171  1.00  0.00     0.069 C   
BRANCH  11  14
ATOM     14  C4  UNL     1       2.428   1.741   4.557  1.00  0.00     0.057 C   
ATOM     15  C5  UNL     1       3.450   2.848   4.301  1.00  0.00     0.016 C   
ATOM     16  C6  UNL     1       2.615   1.156   5.956  1.00  0.00     0.016 C   
ENDBRANCH  11  14
ENDBRANCH   7   8
ENDBRANCH   1   7
BRANCH   3  17
ATOM     17  C11 UNL     1      -1.326  -0.166  -2.344  1.00  0.00     0.117 C   
BRANCH  17  18
ATOM     18  N3  UNL     1      -0.288   0.497  -3.237  1.00  0.00     0.249 N   
ATOM     19  H15 UNL     1       0.614   0.056  -2.998  1.00  0.00     0.199 HD  
ATOM     20  H16 UNL     1      -0.432   0.247  -4.220  1.00  0.00     0.199 HD  
BRANCH  18  21
ATOM     21  C12 UNL     1      -0.138   1.972  -3.104  1.00  0.00     0.164 C   
BRANCH  21  22
ATOM     22  C13 UNL     1       0.165   2.430  -1.704  1.00  0.00    -0.002 A   
ATOM     23  C14 UNL     1       1.401   2.116  -1.089  1.00  0.00     0.012 A   
ATOM     24  C18 UNL     1      -0.800   3.152  -0.980  1.00  0.00     0.045 A   
ATOM     25  C15 UNL     1       1.668   2.502   0.230  1.00  0.00     0.037 A   
ATOM     26  C17 UNL     1      -0.506   3.516   0.317  1.00  0.00     0.109 A   
ATOM     27  C16 UNL     1       0.693   3.200   0.906  1.00  0.00     0.108 A   
ATOM     28  O2  UNL     1      -1.332   4.200   1.150  1.00  0.00    -0.316 OA  
ATOM     29  O3  UNL     1       0.772   3.650   2.185  1.00  0.00    -0.316 OA  
ATOM     30  C19 UNL     1      -0.499   4.318   2.325  1.00  0.00     0.337 C   
ENDBRANCH  21  22
ENDBRANCH  18  21
ENDBRANCH  17  18
BRANCH  17  31
ATOM     31  C20 UNL     1      -2.230  -1.091  -3.204  1.00  0.00     0.043 C   
ATOM     32  C21 UNL     1      -3.028  -0.282  -4.252  1.00  0.00     0.010 C   
ATOM     33  C25 UNL     1      -3.213  -1.895  -2.325  1.00  0.00     0.010 C   
ATOM     34  C22 UNL     1      -3.963  -1.165  -5.076  1.00  0.00     0.001 C   
ATOM     35  C24 UNL     1      -4.150  -2.771  -3.154  1.00  0.00     0.001 C   
ATOM     36  C23 UNL     1      -4.914  -1.958  -4.190  1.00  0.00     0.000 C   
ENDBRANCH  17  31
ENDBRANCH   3  17
TORSDOF 8
