REMARK SMILES CC(C)(C)[C@H]([NH2+]Cc1ccc2c(c1)OCO2)c1cn(Cc2cnn(-c3ccccc3)c2)nn1
REMARK SMILES IDX 17 1 18 2 19 3 32 4 33 5 5 7 2 8 1 9 3 10 4 11 6 12 7 15
REMARK SMILES IDX 8 16 9 17 13 18 10 19 12 20 11 21 14 22 16 23 15 24 20 25
REMARK SMILES IDX 21 26 22 27 31 28 23 29 24 30 25 31 26 32 30 33 27 34 29 35
REMARK SMILES IDX 28 36
REMARK H PARENT 18 6 6 13 6 14
ROOT
ATOM     1   C14 UNL     1      -0.414  -2.847   0.317  1.00  0.00     0.127 A   
ATOM     2   C15 UNL     1      -0.659  -2.012   1.387  1.00  0.00     0.046 A   
ATOM     3   N2  UNL     1       0.426  -2.192   2.202  1.00  0.00    -0.208 N   
ATOM     4   N5  UNL     1       1.256  -3.124   1.693  1.00  0.00    -0.076 NA  
ATOM     5   N6  UNL     1       0.753  -3.529   0.538  1.00  0.00    -0.132 NA  
ATOM     6   H20 UNL     1      -1.424  -1.272   1.590  1.00  0.00     0.083 HD  
ENDROOT
BRANCH   1   7
ATOM     7   C5  UNL     1      -1.116  -2.964  -1.001  1.00  0.00     0.120 C   
BRANCH   7   8
ATOM     8   C2  UNL     1      -1.975  -4.269  -1.167  1.00  0.00     0.010 C   
ATOM     9   C1  UNL     1      -2.817  -4.190  -2.463  1.00  0.00     0.017 C   
ATOM     10  C3  UNL     1      -2.969  -4.399   0.010  1.00  0.00     0.017 C   
ATOM     11  C4  UNL     1      -1.125  -5.555  -1.227  1.00  0.00     0.017 C   
ENDBRANCH   7   8
BRANCH   7  12
ATOM     12  N1  UNL     1      -0.106  -2.849  -2.130  1.00  0.00     0.250 N   
ATOM     13  H11 UNL     1       0.573  -3.610  -1.996  1.00  0.00     0.199 HD  
ATOM     14  H12 UNL     1      -0.561  -2.995  -3.032  1.00  0.00     0.199 HD  
BRANCH  12  15
ATOM     15  C6  UNL     1       0.690  -1.579  -2.201  1.00  0.00     0.164 C   
BRANCH  15  16
ATOM     16  C7  UNL     1      -0.156  -0.339  -2.277  1.00  0.00    -0.002 A   
ATOM     17  C8  UNL     1      -0.964  -0.076  -3.409  1.00  0.00     0.012 A   
ATOM     18  C12 UNL     1      -0.168   0.561  -1.196  1.00  0.00     0.045 A   
ATOM     19  C9  UNL     1      -1.785   1.057  -3.457  1.00  0.00     0.037 A   
ATOM     20  C11 UNL     1      -0.991   1.664  -1.273  1.00  0.00     0.109 A   
ATOM     21  C10 UNL     1      -1.774   1.908  -2.372  1.00  0.00     0.108 A   
ATOM     22  O1  UNL     1      -1.149   2.601  -0.303  1.00  0.00    -0.316 OA  
ATOM     23  O2  UNL     1      -2.506   3.045  -2.243  1.00  0.00    -0.316 OA  
ATOM     24  C13 UNL     1      -2.047   3.523  -0.960  1.00  0.00     0.337 C   
ENDBRANCH  15  16
ENDBRANCH  12  15
ENDBRANCH   7  12
ENDBRANCH   1   7
BRANCH   3  25
ATOM     25  C16 UNL     1       0.834  -1.371   3.334  1.00  0.00     0.172 C   
BRANCH  25  26
ATOM     26  C17 UNL     1       1.420  -0.102   2.820  1.00  0.00     0.008 A   
ATOM     27  C18 UNL     1       2.667   0.062   2.183  1.00  0.00     0.138 A   
ATOM     28  C25 UNL     1       0.872   1.165   2.798  1.00  0.00     0.108 A   
ATOM     29  N3  UNL     1       2.859   1.301   1.739  1.00  0.00    -0.185 NA  
ATOM     30  N4  UNL     1       1.770   2.000   2.153  1.00  0.00    -0.201 N   
BRANCH  30  31
ATOM     31  C19 UNL     1       1.631   3.384   1.857  1.00  0.00     0.056 A   
ATOM     32  C20 UNL     1       0.493   4.106   2.251  1.00  0.00     0.026 A   
ATOM     33  C24 UNL     1       2.649   4.036   1.143  1.00  0.00     0.026 A   
ATOM     34  C21 UNL     1       0.376   5.458   1.915  1.00  0.00     0.002 A   
ATOM     35  C23 UNL     1       2.524   5.387   0.816  1.00  0.00     0.002 A   
ATOM     36  C22 UNL     1       1.381   6.093   1.193  1.00  0.00     0.000 A   
ENDBRANCH  30  31
ENDBRANCH  25  26
ENDBRANCH   3  25
TORSDOF 8
