REMARK SMILES Fc1cccc(F)c1Cn1cc([C@@H]([NH2+]Cc2ccc3c(c2)OCO3)C2CCCCC2)nn1
REMARK SMILES IDX 10 1 11 2 12 3 31 4 32 5 9 7 8 8 2 9 3 10 4 11 6 12 5 13
REMARK SMILES IDX 1 14 7 15 13 16 14 17 15 20 16 21 17 22 21 23 18 24 20 25
REMARK SMILES IDX 19 26 22 27 24 28 23 29 25 30 26 31 30 32 27 33 29 34 28 35
REMARK H PARENT 11 6 14 18 14 19
ROOT
ATOM     1   N1  UNL     1       3.113   1.687  -0.345  1.00  0.00    -0.208 N   
ATOM     2   C8  UNL     1       2.755   0.477  -0.878  1.00  0.00     0.046 A   
ATOM     3   C9  UNL     1       1.523   0.219  -0.321  1.00  0.00     0.127 A   
ATOM     4   N3  UNL     1       1.194   1.240   0.533  1.00  0.00    -0.132 NA  
ATOM     5   N4  UNL     1       2.182   2.119   0.527  1.00  0.00    -0.076 NA  
ATOM     6   H6  UNL     1       3.375  -0.045  -1.593  1.00  0.00     0.083 HD  
ENDROOT
BRANCH   1   7
ATOM     7   C7  UNL     1       4.319   2.458  -0.594  1.00  0.00     0.175 C   
BRANCH   7   8
ATOM     8   C6  UNL     1       4.062   3.574  -1.560  1.00  0.00     0.043 A   
ATOM     9   C1  UNL     1       3.961   4.894  -1.122  1.00  0.00     0.131 A   
ATOM     10  C2  UNL     1       3.713   5.937  -2.012  1.00  0.00     0.040 A   
ATOM     11  C3  UNL     1       3.557   5.667  -3.372  1.00  0.00     0.006 A   
ATOM     12  C5  UNL     1       3.899   3.324  -2.923  1.00  0.00     0.131 A   
ATOM     13  C4  UNL     1       3.650   4.353  -3.829  1.00  0.00     0.040 A   
ATOM     14  F1  UNL     1       4.111   5.175   0.179  1.00  0.00    -0.207 F   
ATOM     15  F2  UNL     1       3.979   2.064  -3.376  1.00  0.00    -0.207 F   
ENDBRANCH   7   8
ENDBRANCH   1   7
BRANCH   3  16
ATOM     16  C10 UNL     1       0.577  -0.929  -0.496  1.00  0.00     0.117 C   
BRANCH  16  17
ATOM     17  N2  UNL     1      -0.406  -0.974   0.643  1.00  0.00     0.249 N   
ATOM     18  H8  UNL     1      -1.258  -1.488   0.406  1.00  0.00     0.199 HD  
ATOM     19  H9  UNL     1      -0.696   0.000   0.819  1.00  0.00     0.199 HD  
BRANCH  17  20
ATOM     20  C11 UNL     1       0.135  -1.500   1.928  1.00  0.00     0.164 C   
BRANCH  20  21
ATOM     21  C12 UNL     1      -0.892  -1.377   3.017  1.00  0.00    -0.002 A   
ATOM     22  C13 UNL     1      -1.017  -0.165   3.738  1.00  0.00     0.012 A   
ATOM     23  C17 UNL     1      -1.771  -2.438   3.287  1.00  0.00     0.045 A   
ATOM     24  C14 UNL     1      -1.997  -0.015   4.725  1.00  0.00     0.037 A   
ATOM     25  C16 UNL     1      -2.725  -2.256   4.267  1.00  0.00     0.109 A   
ATOM     26  C15 UNL     1      -2.835  -1.080   4.966  1.00  0.00     0.108 A   
ATOM     27  O1  UNL     1      -3.647  -3.177   4.652  1.00  0.00    -0.316 OA  
ATOM     28  O2  UNL     1      -3.839  -1.111   5.879  1.00  0.00    -0.316 OA  
ATOM     29  C18 UNL     1      -4.335  -2.455   5.699  1.00  0.00     0.337 C   
ENDBRANCH  20  21
ENDBRANCH  17  20
ENDBRANCH  16  17
BRANCH  16  30
ATOM     30  C19 UNL     1      -0.171  -0.864  -1.855  1.00  0.00     0.043 C   
ATOM     31  C20 UNL     1      -1.168   0.307  -1.964  1.00  0.00     0.010 C   
ATOM     32  C24 UNL     1      -0.876  -2.195  -2.183  1.00  0.00     0.010 C   
ATOM     33  C21 UNL     1      -1.841   0.344  -3.336  1.00  0.00     0.001 C   
ATOM     34  C23 UNL     1      -1.548  -2.151  -3.555  1.00  0.00     0.001 C   
ATOM     35  C22 UNL     1      -2.518  -0.981  -3.668  1.00  0.00     0.000 C   
ENDBRANCH  16  30
ENDBRANCH   3  16
TORSDOF 7
