REMARK SMILES Cn1cc(Cn2cc([C@@H]([NH2+]Cc3ccc4c(c3)OCO4)C3CCCC3)nn2)c(C(F)F)n1
REMARK SMILES IDX 6 1 7 2 8 3 26 4 27 5 5 7 4 8 2 9 3 10 32 11 28 12 1 13
REMARK SMILES IDX 29 14 30 15 31 16 9 17 10 18 11 21 12 22 13 23 17 24 14 25
REMARK SMILES IDX 16 26 15 27 18 28 20 29 19 30 21 31 22 32 25 33 23 34 24 35
REMARK H PARENT 7 6 10 19 10 20
ROOT
ATOM     1   N2  UNL     1      -0.385  -2.490  -0.034  1.00  0.00    -0.208 N   
ATOM     2   C5  UNL     1      -0.872  -1.619   0.899  1.00  0.00     0.046 A   
ATOM     3   C6  UNL     1      -1.415  -0.601   0.148  1.00  0.00     0.127 A   
ATOM     4   N4  UNL     1      -1.310  -0.912  -1.181  1.00  0.00    -0.132 NA  
ATOM     5   N5  UNL     1      -0.692  -2.078  -1.282  1.00  0.00    -0.076 NA  
ATOM     6   H7  UNL     1      -0.728  -1.768   1.961  1.00  0.00     0.083 HD  
ENDROOT
BRANCH   1   7
ATOM     7   C4  UNL     1       0.428  -3.676   0.181  1.00  0.00     0.173 C   
BRANCH   7   8
ATOM     8   C3  UNL     1       1.843  -3.438  -0.230  1.00  0.00     0.016 A   
ATOM     9   N1  UNL     1       3.782  -3.516  -1.267  1.00  0.00    -0.235 N   
ATOM     10  C2  UNL     1       2.524  -4.037  -1.272  1.00  0.00     0.102 A   
ATOM     11  N6  UNL     1       3.973  -2.603  -0.301  1.00  0.00    -0.180 NA  
ATOM     12  C21 UNL     1       2.801  -2.552   0.352  1.00  0.00     0.131 A   
ATOM     13  C1  UNL     1       4.858  -3.832  -2.175  1.00  0.00     0.159 C   
BRANCH  12  14
ATOM     14  C22 UNL     1       2.627  -1.636   1.524  1.00  0.00     0.393 C   
ATOM     15  F1  UNL     1       1.966  -0.493   1.159  1.00  0.00    -0.203 F   
ATOM     16  F2  UNL     1       1.843  -2.208   2.483  1.00  0.00    -0.203 F   
ENDBRANCH  12  14
ENDBRANCH   7   8
ENDBRANCH   1   7
BRANCH   3  17
ATOM     17  C7  UNL     1      -1.954   0.733   0.544  1.00  0.00     0.117 C   
BRANCH  17  18
ATOM     18  N3  UNL     1      -1.341   1.794  -0.335  1.00  0.00     0.249 N   
ATOM     19  H9  UNL     1      -1.470   1.487  -1.309  1.00  0.00     0.199 HD  
ATOM     20  H10 UNL     1      -1.827   2.691  -0.245  1.00  0.00     0.199 HD  
BRANCH  18  21
ATOM     21  C8  UNL     1       0.121   2.021  -0.135  1.00  0.00     0.164 C   
BRANCH  21  22
ATOM     22  C9  UNL     1       0.605   3.114  -1.047  1.00  0.00    -0.002 A   
ATOM     23  C10 UNL     1       0.509   4.472  -0.655  1.00  0.00     0.012 A   
ATOM     24  C14 UNL     1       1.105   2.791  -2.322  1.00  0.00     0.045 A   
ATOM     25  C11 UNL     1       0.915   5.496  -1.517  1.00  0.00     0.037 A   
ATOM     26  C13 UNL     1       1.502   3.825  -3.144  1.00  0.00     0.109 A   
ATOM     27  C12 UNL     1       1.407   5.139  -2.753  1.00  0.00     0.108 A   
ATOM     28  O1  UNL     1       2.014   3.689  -4.395  1.00  0.00    -0.316 OA  
ATOM     29  O2  UNL     1       1.848   5.997  -3.709  1.00  0.00    -0.316 OA  
ATOM     30  C15 UNL     1       2.272   5.071  -4.735  1.00  0.00     0.337 C   
ENDBRANCH  21  22
ENDBRANCH  18  21
ENDBRANCH  17  18
BRANCH  17  31
ATOM     31  C16 UNL     1      -3.489   0.798   0.406  1.00  0.00     0.043 C   
ATOM     32  C17 UNL     1      -4.218  -0.168   1.351  1.00  0.00     0.010 C   
ATOM     33  C20 UNL     1      -4.111   2.147   0.780  1.00  0.00     0.010 C   
ATOM     34  C18 UNL     1      -5.617   0.418   1.550  1.00  0.00     0.001 C   
ATOM     35  C19 UNL     1      -5.587   1.816   0.946  1.00  0.00     0.001 C   
ENDBRANCH  17  31
ENDBRANCH   3  17
TORSDOF 8
