REMARK SMILES Cc1ccc(O)c([C@H](CO)n2cc([C@@H]([NH2+]Cc3ccc4c(c3)OCO4)C3CCCCC3)nn2)c1
REMARK SMILES IDX 11 1 12 2 13 3 32 4 33 5 8 7 7 8 2 9 3 10 34 11 4 12 5 13
REMARK SMILES IDX 1 14 6 15 9 17 10 18 14 20 15 21 16 24 17 25 18 26 22 27
REMARK SMILES IDX 19 28 21 29 20 30 23 31 25 32 24 33 26 34 27 35 31 36 28 37
REMARK SMILES IDX 30 38 29 39
REMARK H PARENT 12 6 6 16 10 19 15 22 15 23
ROOT
ATOM     1   N1  UNL     1       1.819   0.974  -0.464  1.00  0.00    -0.202 N   
ATOM     2   C9  UNL     1       0.495   1.150  -0.764  1.00  0.00     0.046 A   
ATOM     3   C10 UNL     1      -0.027  -0.120  -0.770  1.00  0.00     0.127 A   
ATOM     4   N3  UNL     1       0.974  -1.017  -0.491  1.00  0.00    -0.132 NA  
ATOM     5   N4  UNL     1       2.097  -0.340  -0.316  1.00  0.00    -0.075 NA  
ATOM     6   H11 UNL     1       0.080   2.132  -0.944  1.00  0.00     0.083 HD  
ENDROOT
BRANCH   1   7
ATOM     7   C7  UNL     1       2.855   1.984  -0.265  1.00  0.00     0.158 C   
BRANCH   7   8
ATOM     8   C6  UNL     1       2.482   2.894   0.903  1.00  0.00     0.007 A   
ATOM     9   C2  UNL     1       2.399   3.168   3.346  1.00  0.00    -0.051 A   
ATOM     10  C3  UNL     1       1.799   4.417   3.181  1.00  0.00     0.006 A   
ATOM     11  C26 UNL     1       2.721   2.414   2.211  1.00  0.00     0.012 A   
ATOM     12  C4  UNL     1       1.544   4.909   1.901  1.00  0.00     0.034 A   
ATOM     13  C5  UNL     1       1.885   4.152   0.776  1.00  0.00     0.076 A   
ATOM     14  C1  UNL     1       2.648   2.619   4.721  1.00  0.00     0.044 C   
BRANCH  13  15
ATOM     15  O1  UNL     1       1.611   4.655  -0.461  1.00  0.00    -0.361 OA  
ATOM     16  H6  UNL     1       1.226   5.543  -0.368  1.00  0.00     0.218 HD  
ENDBRANCH  13  15
ENDBRANCH   7   8
BRANCH   7  17
ATOM     17  C8  UNL     1       3.318   2.621  -1.594  1.00  0.00     0.186 C   
BRANCH  17  18
ATOM     18  O2  UNL     1       2.258   2.903  -2.510  1.00  0.00    -0.394 OA  
ATOM     19  H10 UNL     1       2.556   3.654  -3.054  1.00  0.00     0.210 HD  
ENDBRANCH  17  18
ENDBRANCH   7  17
ENDBRANCH   1   7
BRANCH   3  20
ATOM     20  C11 UNL     1      -1.403  -0.615  -1.075  1.00  0.00     0.117 C   
BRANCH  20  21
ATOM     21  N2  UNL     1      -1.331  -2.051  -1.535  1.00  0.00     0.249 N   
ATOM     22  H13 UNL     1      -0.623  -2.506  -0.939  1.00  0.00     0.199 HD  
ATOM     23  H14 UNL     1      -2.210  -2.552  -1.377  1.00  0.00     0.199 HD  
BRANCH  21  24
ATOM     24  C12 UNL     1      -0.895  -2.243  -2.945  1.00  0.00     0.164 C   
BRANCH  24  25
ATOM     25  C13 UNL     1      -0.682  -3.703  -3.230  1.00  0.00    -0.002 A   
ATOM     26  C14 UNL     1      -1.706  -4.482  -3.819  1.00  0.00     0.012 A   
ATOM     27  C18 UNL     1       0.527  -4.317  -2.855  1.00  0.00     0.045 A   
ATOM     28  C15 UNL     1      -1.527  -5.853  -4.041  1.00  0.00     0.037 A   
ATOM     29  C17 UNL     1       0.668  -5.669  -3.086  1.00  0.00     0.109 A   
ATOM     30  C16 UNL     1      -0.329  -6.418  -3.661  1.00  0.00     0.108 A   
ATOM     31  O3  UNL     1       1.764  -6.412  -2.782  1.00  0.00    -0.316 OA  
ATOM     32  O4  UNL     1       0.015  -7.725  -3.795  1.00  0.00    -0.316 OA  
ATOM     33  C19 UNL     1       1.353  -7.716  -3.249  1.00  0.00     0.337 C   
ENDBRANCH  24  25
ENDBRANCH  21  24
ENDBRANCH  20  21
BRANCH  20  34
ATOM     34  C20 UNL     1      -2.401  -0.528   0.110  1.00  0.00     0.043 C   
ATOM     35  C21 UNL     1      -1.986  -1.347   1.349  1.00  0.00     0.010 C   
ATOM     36  C25 UNL     1      -2.693   0.931   0.511  1.00  0.00     0.010 C   
ATOM     37  C22 UNL     1      -3.035  -1.256   2.458  1.00  0.00     0.001 C   
ATOM     38  C24 UNL     1      -3.742   1.015   1.619  1.00  0.00     0.001 C   
ATOM     39  C23 UNL     1      -3.335   0.191   2.837  1.00  0.00     0.000 C   
ENDBRANCH  20  34
ENDBRANCH   3  20
TORSDOF 10
