REMARK SMILES CC(C)[C@H]([NH2+]Cc1ccc2c(c1)OCO2)c1cn(CC(=O)c2cccs2)nn1
REMARK SMILES IDX 16 1 17 2 18 3 27 4 28 5 4 7 2 8 1 9 3 10 5 11 6 14 7 15
REMARK SMILES IDX 8 16 12 17 9 18 11 19 10 20 13 21 15 22 14 23 19 24 20 25
REMARK SMILES IDX 21 26 22 27 23 28 26 29 24 30 25 31
REMARK H PARENT 17 6 5 12 5 13
ROOT
ATOM     1   C13 UNL     1      -0.887  -2.060  -0.620  1.00  0.00     0.127 A   
ATOM     2   C14 UNL     1      -1.140  -2.204   0.726  1.00  0.00     0.046 A   
ATOM     3   N2  UNL     1      -0.650  -3.447   1.020  1.00  0.00    -0.204 N   
ATOM     4   N3  UNL     1      -0.180  -4.055  -0.085  1.00  0.00    -0.076 NA  
ATOM     5   N4  UNL     1      -0.315  -3.213  -1.096  1.00  0.00    -0.132 NA  
ATOM     6   H18 UNL     1      -1.560  -1.550   1.479  1.00  0.00     0.083 HD  
ENDROOT
BRANCH   1   7
ATOM     7   C4  UNL     1      -1.076  -0.893  -1.533  1.00  0.00     0.117 C   
BRANCH   7   8
ATOM     8   C2  UNL     1      -2.491  -0.868  -2.172  1.00  0.00     0.037 C   
ATOM     9   C1  UNL     1      -2.751  -2.005  -3.165  1.00  0.00     0.014 C   
ATOM     10  C3  UNL     1      -2.782   0.480  -2.842  1.00  0.00     0.014 C   
ENDBRANCH   7   8
BRANCH   7  11
ATOM     11  N1  UNL     1      -0.015  -0.881  -2.609  1.00  0.00     0.249 N   
ATOM     12  H9  UNL     1      -0.261  -0.229  -3.357  1.00  0.00     0.199 HD  
ATOM     13  H10 UNL     1      -0.003  -1.827  -3.014  1.00  0.00     0.199 HD  
BRANCH  11  14
ATOM     14  C5  UNL     1       1.380  -0.591  -2.154  1.00  0.00     0.164 C   
BRANCH  14  15
ATOM     15  C6  UNL     1       1.534   0.777  -1.550  1.00  0.00    -0.002 A   
ATOM     16  C7  UNL     1       1.819   0.913  -0.169  1.00  0.00     0.012 A   
ATOM     17  C11 UNL     1       1.370   1.929  -2.341  1.00  0.00     0.045 A   
ATOM     18  C8  UNL     1       1.929   2.177   0.422  1.00  0.00     0.037 A   
ATOM     19  C10 UNL     1       1.484   3.159  -1.727  1.00  0.00     0.109 A   
ATOM     20  C9  UNL     1       1.753   3.281  -0.385  1.00  0.00     0.108 A   
ATOM     21  O1  UNL     1       1.345   4.362  -2.342  1.00  0.00    -0.316 OA  
ATOM     22  O2  UNL     1       1.817   4.576   0.016  1.00  0.00    -0.316 OA  
ATOM     23  C12 UNL     1       1.603   5.261  -1.238  1.00  0.00     0.337 C   
ENDBRANCH  14  15
ENDBRANCH  11  14
ENDBRANCH   7  11
ENDBRANCH   1   7
BRANCH   3  24
ATOM     24  C15 UNL     1      -0.610  -4.119   2.305  1.00  0.00     0.215 C   
BRANCH  24  25
ATOM     25  C16 UNL     1       0.491  -3.568   3.193  1.00  0.00     0.188 C   
ATOM     26  O3  UNL     1       1.161  -2.596   2.836  1.00  0.00    -0.292 OA  
BRANCH  25  27
ATOM     27  C17 UNL     1       0.705  -4.199   4.497  1.00  0.00     0.056 A   
ATOM     28  C18 UNL     1       1.638  -3.827   5.449  1.00  0.00     0.020 A   
ATOM     29  S1  UNL     1      -0.228  -5.529   5.042  1.00  0.00    -0.094 S   
ATOM     30  C19 UNL     1       1.574  -4.629   6.625  1.00  0.00     0.009 A   
ATOM     31  C20 UNL     1       0.593  -5.589   6.538  1.00  0.00     0.046 A   
ENDBRANCH  25  27
ENDBRANCH  24  25
ENDBRANCH   3  24
TORSDOF 8
