REMARK SMILES CC(C)C[C@H]([NH2+]Cc1ccc2c(c1)OCO2)c1cn(Cc2ccn(CC(C)C)n2)nn1
REMARK SMILES IDX 17 1 18 2 19 3 30 4 31 5 5 7 4 8 2 9 1 10 3 11 6 12 7 15
REMARK SMILES IDX 8 16 9 17 13 18 10 19 12 20 11 21 14 22 16 23 15 24 20 25
REMARK SMILES IDX 21 26 22 27 29 28 23 29 24 30 25 31 26 32 27 33 28 34
REMARK H PARENT 18 6 6 13 6 14
ROOT
ATOM     1   C14 UNL     1      -2.340  -0.644   0.702  1.00  0.00     0.127 A   
ATOM     2   C15 UNL     1      -1.066  -0.398   0.247  1.00  0.00     0.046 A   
ATOM     3   N2  UNL     1      -0.785  -1.476  -0.550  1.00  0.00    -0.206 N   
ATOM     4   N5  UNL     1      -1.836  -2.321  -0.602  1.00  0.00    -0.076 NA  
ATOM     5   N6  UNL     1      -2.791  -1.827   0.171  1.00  0.00    -0.132 NA  
ATOM     6   H20 UNL     1      -0.357   0.406   0.393  1.00  0.00     0.083 HD  
ENDROOT
BRANCH   1   7
ATOM     7   C5  UNL     1      -3.260   0.172   1.545  1.00  0.00     0.114 C   
BRANCH   7   8
ATOM     8   C4  UNL     1      -3.400  -0.386   2.975  1.00  0.00     0.064 C   
BRANCH   8   9
ATOM     9   C2  UNL     1      -2.098  -0.397   3.804  1.00  0.00    -0.012 C   
ATOM     10  C1  UNL     1      -1.509   1.003   3.986  1.00  0.00     0.007 C   
ATOM     11  C3  UNL     1      -2.365  -1.024   5.175  1.00  0.00     0.007 C   
ENDBRANCH   8   9
ENDBRANCH   7   8
BRANCH   7  12
ATOM     12  N1  UNL     1      -4.645   0.157   0.918  1.00  0.00     0.249 N   
ATOM     13  H11 UNL     1      -5.367   0.139   1.645  1.00  0.00     0.199 HD  
ATOM     14  H12 UNL     1      -4.717  -0.746   0.424  1.00  0.00     0.199 HD  
BRANCH  12  15
ATOM     15  C6  UNL     1      -4.950   1.253  -0.046  1.00  0.00     0.164 C   
BRANCH  15  16
ATOM     16  C7  UNL     1      -4.037   1.300  -1.239  1.00  0.00    -0.002 A   
ATOM     17  C8  UNL     1      -4.116   0.305  -2.244  1.00  0.00     0.012 A   
ATOM     18  C12 UNL     1      -3.059   2.304  -1.340  1.00  0.00     0.045 A   
ATOM     19  C9  UNL     1      -3.222   0.295  -3.320  1.00  0.00     0.037 A   
ATOM     20  C11 UNL     1      -2.193   2.264  -2.413  1.00  0.00     0.109 A   
ATOM     21  C10 UNL     1      -2.268   1.286  -3.373  1.00  0.00     0.108 A   
ATOM     22  O1  UNL     1      -1.181   3.141  -2.643  1.00  0.00    -0.316 OA  
ATOM     23  O2  UNL     1      -1.312   1.422  -4.327  1.00  0.00    -0.316 OA  
ATOM     24  C13 UNL     1      -0.652   2.628  -3.887  1.00  0.00     0.337 C   
ENDBRANCH  15  16
ENDBRANCH  12  15
ENDBRANCH   7  12
ENDBRANCH   1   7
BRANCH   3  25
ATOM     25  C16 UNL     1       0.401  -1.710  -1.354  1.00  0.00     0.191 C   
BRANCH  25  26
ATOM     26  C17 UNL     1       1.554  -2.066  -0.483  1.00  0.00     0.079 A   
ATOM     27  C18 UNL     1       2.016  -3.359  -0.141  1.00  0.00     0.044 A   
ATOM     28  N4  UNL     1       2.306  -1.110   0.085  1.00  0.00    -0.185 NA  
ATOM     29  C19 UNL     1       3.110  -3.146   0.662  1.00  0.00     0.097 A   
ATOM     30  N3  UNL     1       3.265  -1.793   0.744  1.00  0.00    -0.232 N   
BRANCH  30  31
ATOM     31  C20 UNL     1       4.280  -1.081   1.498  1.00  0.00     0.135 C   
BRANCH  31  32
ATOM     32  C21 UNL     1       5.521  -0.649   0.696  1.00  0.00     0.002 C   
ATOM     33  C22 UNL     1       5.191   0.362  -0.401  1.00  0.00     0.009 C   
ATOM     34  C23 UNL     1       6.285  -1.839   0.116  1.00  0.00     0.009 C   
ENDBRANCH  31  32
ENDBRANCH  30  31
ENDBRANCH  25  26
ENDBRANCH   3  25
TORSDOF 10
