REMARK SMILES CC(C)C[C@H]([NH2+]Cc1ccc2c(c1)OCO2)c1cn(C[C@@H]2Cc3cccc(F)c3O2)nn1
REMARK SMILES IDX 17 1 18 2 19 3 31 4 32 5 5 7 4 8 2 9 1 10 3 11 6 12 7 15
REMARK SMILES IDX 8 16 9 17 13 18 10 19 12 20 11 21 14 22 16 23 15 24 20 25
REMARK SMILES IDX 21 26 22 27 30 28 23 29 29 30 24 31 27 32 25 33 26 34 28 35
REMARK H PARENT 18 6 6 13 6 14
ROOT
ATOM     1   C14 UNL     1       1.056  -0.982   0.113  1.00  0.00     0.127 A   
ATOM     2   C15 UNL     1       1.339  -0.625  -1.183  1.00  0.00     0.045 A   
ATOM     3   N2  UNL     1       2.319  -1.492  -1.563  1.00  0.00    -0.210 N   
ATOM     4   N3  UNL     1       2.549  -2.406  -0.599  1.00  0.00    -0.076 NA  
ATOM     5   N4  UNL     1       1.784  -2.098   0.436  1.00  0.00    -0.132 NA  
ATOM     6   H20 UNL     1       0.993   0.175  -1.823  1.00  0.00     0.083 HD  
ENDROOT
BRANCH   1   7
ATOM     7   C5  UNL     1       0.117  -0.387   1.107  1.00  0.00     0.114 C   
BRANCH   7   8
ATOM     8   C4  UNL     1       0.821   0.602   2.061  1.00  0.00     0.064 C   
BRANCH   8   9
ATOM     9   C2  UNL     1       1.436   1.846   1.384  1.00  0.00    -0.012 C   
ATOM     10  C1  UNL     1       2.152   2.704   2.429  1.00  0.00     0.007 C   
ATOM     11  C3  UNL     1       0.393   2.687   0.651  1.00  0.00     0.007 C   
ENDBRANCH   8   9
ENDBRANCH   7   8
BRANCH   7  12
ATOM     12  N1  UNL     1      -0.495  -1.475   1.972  1.00  0.00     0.249 N   
ATOM     13  H11 UNL     1       0.291  -2.024   2.351  1.00  0.00     0.199 HD  
ATOM     14  H12 UNL     1      -0.988  -1.057   2.768  1.00  0.00     0.199 HD  
BRANCH  12  15
ATOM     15  C6  UNL     1      -1.403  -2.434   1.272  1.00  0.00     0.164 C   
BRANCH  15  16
ATOM     16  C7  UNL     1      -2.638  -1.779   0.710  1.00  0.00    -0.002 A   
ATOM     17  C8  UNL     1      -2.782  -1.611  -0.691  1.00  0.00     0.012 A   
ATOM     18  C12 UNL     1      -3.641  -1.302   1.568  1.00  0.00     0.045 A   
ATOM     19  C9  UNL     1      -3.907  -0.971  -1.230  1.00  0.00     0.037 A   
ATOM     20  C11 UNL     1      -4.736  -0.674   1.003  1.00  0.00     0.109 A   
ATOM     21  C10 UNL     1      -4.865  -0.512  -0.355  1.00  0.00     0.108 A   
ATOM     22  O1  UNL     1      -5.788  -0.150   1.688  1.00  0.00    -0.316 OA  
ATOM     23  O2  UNL     1      -6.011   0.136  -0.696  1.00  0.00    -0.316 OA  
ATOM     24  C13 UNL     1      -6.613   0.336   0.601  1.00  0.00     0.337 C   
ENDBRANCH  15  16
ENDBRANCH  12  15
ENDBRANCH   7  12
ENDBRANCH   1   7
BRANCH   3  25
ATOM     25  C16 UNL     1       3.094  -1.499  -2.789  1.00  0.00     0.166 C   
BRANCH  25  26
ATOM     26  C17 UNL     1       3.982  -0.265  -2.970  1.00  0.00     0.149 C   
ATOM     27  C18 UNL     1       5.006  -0.033  -1.843  1.00  0.00     0.072 C   
ATOM     28  O3  UNL     1       3.137   0.910  -3.120  1.00  0.00    -0.337 OA  
ATOM     29  C19 UNL     1       4.788   1.406  -1.582  1.00  0.00    -0.012 A   
ATOM     30  C24 UNL     1       3.709   1.863  -2.321  1.00  0.00     0.114 A   
ATOM     31  C20 UNL     1       5.470   2.252  -0.719  1.00  0.00     0.007 A   
ATOM     32  C23 UNL     1       3.266   3.166  -2.208  1.00  0.00     0.153 A   
ATOM     33  C21 UNL     1       5.040   3.580  -0.610  1.00  0.00     0.004 A   
ATOM     34  C22 UNL     1       3.936   4.035  -1.350  1.00  0.00     0.042 A   
ATOM     35  F1  UNL     1       2.196   3.592  -2.895  1.00  0.00    -0.204 F   
ENDBRANCH  25  26
ENDBRANCH   3  25
TORSDOF 8
