REMARK SMILES CC(C)C[C@H]([NH2+]Cc1ccc2c(c1)OCO2)c1cn(C[C@H]2Cc3cccc(F)c3O2)nn1
REMARK SMILES IDX 17 1 18 2 19 3 31 4 32 5 5 7 4 8 2 9 1 10 3 11 6 12 7 15
REMARK SMILES IDX 8 16 9 17 13 18 10 19 12 20 11 21 14 22 16 23 15 24 20 25
REMARK SMILES IDX 21 26 22 27 30 28 23 29 29 30 24 31 27 32 25 33 26 34 28 35
REMARK H PARENT 18 6 6 13 6 14
ROOT
ATOM     1   C14 UNL     1       0.372  -0.490  -0.589  1.00  0.00     0.127 A   
ATOM     2   C15 UNL     1       0.329  -0.431  -1.964  1.00  0.00     0.045 A   
ATOM     3   N2  UNL     1      -0.819  -1.099  -2.285  1.00  0.00    -0.210 N   
ATOM     4   N3  UNL     1      -1.433  -1.560  -1.182  1.00  0.00    -0.076 NA  
ATOM     5   N4  UNL     1      -0.720  -1.183  -0.134  1.00  0.00    -0.132 NA  
ATOM     6   H20 UNL     1       0.953   0.041  -2.712  1.00  0.00     0.083 HD  
ENDROOT
BRANCH   1   7
ATOM     7   C5  UNL     1       1.286   0.166   0.386  1.00  0.00     0.114 C   
BRANCH   7   8
ATOM     8   C4  UNL     1       2.109  -0.820   1.236  1.00  0.00     0.064 C   
BRANCH   8   9
ATOM     9   C2  UNL     1       3.212  -1.636   0.526  1.00  0.00    -0.012 C   
ATOM     10  C1  UNL     1       4.149  -0.767  -0.312  1.00  0.00     0.007 C   
ATOM     11  C3  UNL     1       2.673  -2.802  -0.302  1.00  0.00     0.007 C   
ENDBRANCH   8   9
ENDBRANCH   7   8
BRANCH   7  12
ATOM     12  N1  UNL     1       0.452   0.983   1.352  1.00  0.00     0.249 N   
ATOM     13  H11 UNL     1       1.006   1.284   2.161  1.00  0.00     0.199 HD  
ATOM     14  H12 UNL     1      -0.280   0.355   1.716  1.00  0.00     0.199 HD  
BRANCH  12  15
ATOM     15  C6  UNL     1      -0.227   2.168   0.756  1.00  0.00     0.164 C   
BRANCH  15  16
ATOM     16  C7  UNL     1      -1.067   2.872   1.784  1.00  0.00    -0.002 A   
ATOM     17  C8  UNL     1      -0.557   3.986   2.490  1.00  0.00     0.012 A   
ATOM     18  C12 UNL     1      -2.358   2.397   2.074  1.00  0.00     0.045 A   
ATOM     19  C9  UNL     1      -1.327   4.628   3.466  1.00  0.00     0.037 A   
ATOM     20  C11 UNL     1      -3.091   3.055   3.039  1.00  0.00     0.109 A   
ATOM     21  C10 UNL     1      -2.590   4.139   3.716  1.00  0.00     0.108 A   
ATOM     22  O1  UNL     1      -4.351   2.733   3.432  1.00  0.00    -0.316 OA  
ATOM     23  O2  UNL     1      -3.471   4.636   4.622  1.00  0.00    -0.316 OA  
ATOM     24  C13 UNL     1      -4.593   3.746   4.435  1.00  0.00     0.337 C   
ENDBRANCH  15  16
ENDBRANCH  12  15
ENDBRANCH   7  12
ENDBRANCH   1   7
BRANCH   3  25
ATOM     25  C16 UNL     1      -1.400  -1.290  -3.597  1.00  0.00     0.166 C   
BRANCH  25  26
ATOM     26  C17 UNL     1      -2.354  -0.165  -4.016  1.00  0.00     0.149 C   
ATOM     27  C18 UNL     1      -3.648  -0.071  -3.188  1.00  0.00     0.072 C   
ATOM     28  O3  UNL     1      -1.649   1.108  -3.976  1.00  0.00    -0.337 OA  
ATOM     29  C19 UNL     1      -3.458   1.250  -2.550  1.00  0.00    -0.012 A   
ATOM     30  C24 UNL     1      -2.327   1.863  -3.058  1.00  0.00     0.114 A   
ATOM     31  C20 UNL     1      -4.256   1.890  -1.613  1.00  0.00     0.007 A   
ATOM     32  C23 UNL     1      -1.952   3.124  -2.636  1.00  0.00     0.153 A   
ATOM     33  C21 UNL     1      -3.891   3.173  -1.190  1.00  0.00     0.004 A   
ATOM     34  C22 UNL     1      -2.738   3.790  -1.699  1.00  0.00     0.042 A   
ATOM     35  F1  UNL     1      -0.824   3.692  -3.083  1.00  0.00    -0.204 F   
ENDBRANCH  25  26
ENDBRANCH   3  25
TORSDOF 8
