REMARK SMILES CC(C)[C@H]([NH2+]Cc1ccc2c(c1)OCO2)c1cn(CCc2ccncc2)nn1
REMARK SMILES IDX 16 1 17 2 18 3 27 4 28 5 4 7 2 8 1 9 3 10 5 11 6 14 7 15
REMARK SMILES IDX 8 16 12 17 9 18 11 19 10 20 13 21 15 22 14 23 19 24 20 25
REMARK SMILES IDX 21 26 22 27 26 28 23 29 25 30 24 31
REMARK H PARENT 17 6 5 12 5 13
ROOT
ATOM     1   C13 UNL     1       1.792  -0.246   1.200  1.00  0.00     0.127 A   
ATOM     2   C14 UNL     1       1.567  -0.947   2.364  1.00  0.00     0.045 A   
ATOM     3   N2  UNL     1       0.992  -0.024   3.195  1.00  0.00    -0.212 N   
ATOM     4   N4  UNL     1       0.938   1.186   2.610  1.00  0.00    -0.076 NA  
ATOM     5   N5  UNL     1       1.411   1.060   1.380  1.00  0.00    -0.132 NA  
ATOM     6   H18 UNL     1       1.682  -1.985   2.640  1.00  0.00     0.083 HD  
ENDROOT
BRANCH   1   7
ATOM     7   C4  UNL     1       2.222  -0.714  -0.154  1.00  0.00     0.117 C   
BRANCH   7   8
ATOM     8   C2  UNL     1       3.732  -0.484  -0.415  1.00  0.00     0.037 C   
ATOM     9   C1  UNL     1       4.214  -1.265  -1.644  1.00  0.00     0.014 C   
ATOM     10  C3  UNL     1       4.131   0.990  -0.557  1.00  0.00     0.014 C   
ENDBRANCH   7   8
BRANCH   7  11
ATOM     11  N1  UNL     1       1.389  -0.042  -1.210  1.00  0.00     0.249 N   
ATOM     12  H9  UNL     1       1.376   0.962  -0.978  1.00  0.00     0.199 HD  
ATOM     13  H10 UNL     1       1.804  -0.118  -2.143  1.00  0.00     0.199 HD  
BRANCH  11  14
ATOM     14  C5  UNL     1      -0.031  -0.497  -1.272  1.00  0.00     0.164 C   
BRANCH  14  15
ATOM     15  C6  UNL     1      -0.824   0.389  -2.191  1.00  0.00    -0.002 A   
ATOM     16  C7  UNL     1      -1.323   1.629  -1.720  1.00  0.00     0.012 A   
ATOM     17  C11 UNL     1      -1.034   0.021  -3.529  1.00  0.00     0.045 A   
ATOM     18  C8  UNL     1      -2.031   2.486  -2.567  1.00  0.00     0.037 A   
ATOM     19  C10 UNL     1      -1.736   0.890  -4.338  1.00  0.00     0.109 A   
ATOM     20  C9  UNL     1      -2.221   2.087  -3.872  1.00  0.00     0.108 A   
ATOM     21  O1  UNL     1      -2.025   0.689  -5.651  1.00  0.00    -0.316 OA  
ATOM     22  O2  UNL     1      -2.879   2.789  -4.831  1.00  0.00    -0.316 OA  
ATOM     23  C12 UNL     1      -2.774   1.887  -5.954  1.00  0.00     0.337 C   
ENDBRANCH  14  15
ENDBRANCH  11  14
ENDBRANCH   7  11
ENDBRANCH   1   7
BRANCH   3  24
ATOM     24  C15 UNL     1       0.325  -0.271   4.458  1.00  0.00     0.139 C   
BRANCH  24  25
ATOM     25  C16 UNL     1      -1.198  -0.079   4.388  1.00  0.00     0.057 C   
BRANCH  25  26
ATOM     26  C17 UNL     1      -1.848  -0.771   3.211  1.00  0.00    -0.043 A   
ATOM     27  C18 UNL     1      -2.500  -0.018   2.229  1.00  0.00     0.024 A   
ATOM     28  C21 UNL     1      -1.787  -2.158   3.051  1.00  0.00     0.024 A   
ATOM     29  C19 UNL     1      -3.004  -0.667   1.114  1.00  0.00     0.111 A   
ATOM     30  C20 UNL     1      -2.307  -2.715   1.893  1.00  0.00     0.111 A   
ATOM     31  N3  UNL     1      -2.871  -1.993   0.900  1.00  0.00    -0.265 NA  
ENDBRANCH  25  26
ENDBRANCH  24  25
ENDBRANCH   3  24
TORSDOF 8
