REMARK SMILES COc1cc(F)ccc1-n1cc([C@@H]([NH2+]Cc2ccc3c(c2)OCO3)C(C)(C)C)nn1
REMARK SMILES IDX 10 1 11 2 12 3 29 4 30 5 9 6 3 7 4 8 5 9 8 10 7 11 6 12 2 13
REMARK SMILES IDX 1 14 13 15 14 16 15 19 16 20 17 21 21 22 18 23 20 24 19 25
REMARK SMILES IDX 22 26 24 27 23 28 25 29 26 30 27 31 28 32
REMARK H PARENT 14 17 14 18
ROOT
ATOM     1   N1  UNL     1      -1.792  -1.726  -0.850  1.00  0.00    -0.178 N   
ATOM     2   C8  UNL     1      -1.941  -0.351  -0.842  1.00  0.00     0.135 A   
ATOM     3   C9  UNL     1      -0.678   0.160  -0.644  1.00  0.00     0.128 A   
ATOM     4   N3  UNL     1       0.199  -0.872  -0.493  1.00  0.00    -0.131 NA  
ATOM     5   N4  UNL     1      -0.477  -2.002  -0.602  1.00  0.00    -0.071 NA  
ENDROOT
BRANCH   1   6
ATOM     6   C7  UNL     1      -2.736  -2.778  -1.041  1.00  0.00     0.088 A   
ATOM     7   C2  UNL     1      -4.105  -2.556  -1.313  1.00  0.00     0.101 A   
ATOM     8   C3  UNL     1      -4.951  -3.664  -1.477  1.00  0.00     0.074 A   
ATOM     9   C4  UNL     1      -4.451  -4.959  -1.381  1.00  0.00     0.125 A   
ATOM     10  C6  UNL     1      -2.255  -4.104  -0.953  1.00  0.00     0.032 A   
ATOM     11  C5  UNL     1      -3.112  -5.190  -1.123  1.00  0.00     0.041 A   
ATOM     12  F1  UNL     1      -5.281  -5.997  -1.542  1.00  0.00    -0.207 F   
BRANCH   7  13
ATOM     13  O1  UNL     1      -4.557  -1.268  -1.402  1.00  0.00    -0.347 OA  
ATOM     14  C1  UNL     1      -5.909  -1.054  -1.802  1.00  0.00     0.203 C   
ENDBRANCH   7  13
ENDBRANCH   1   6
BRANCH   3  15
ATOM     15  C10 UNL     1      -0.192   1.573  -0.506  1.00  0.00     0.120 C   
BRANCH  15  16
ATOM     16  N2  UNL     1       0.944   1.602   0.491  1.00  0.00     0.250 N   
ATOM     17  H9  UNL     1       1.584   0.834   0.238  1.00  0.00     0.199 HD  
ATOM     18  H10 UNL     1       1.495   2.463   0.431  1.00  0.00     0.199 HD  
BRANCH  16  19
ATOM     19  C11 UNL     1       0.552   1.395   1.914  1.00  0.00     0.164 C   
BRANCH  19  20
ATOM     20  C12 UNL     1       1.767   1.409   2.798  1.00  0.00    -0.002 A   
ATOM     21  C13 UNL     1       2.531   0.231   2.974  1.00  0.00     0.012 A   
ATOM     22  C17 UNL     1       2.182   2.603   3.412  1.00  0.00     0.045 A   
ATOM     23  C14 UNL     1       3.688   0.236   3.761  1.00  0.00     0.037 A   
ATOM     24  C16 UNL     1       3.326   2.572   4.181  1.00  0.00     0.109 A   
ATOM     25  C15 UNL     1       4.059   1.424   4.351  1.00  0.00     0.108 A   
ATOM     26  O2  UNL     1       3.860   3.632   4.843  1.00  0.00    -0.316 OA  
ATOM     27  O3  UNL     1       5.146   1.615   5.142  1.00  0.00    -0.316 OA  
ATOM     28  C18 UNL     1       5.004   3.012   5.474  1.00  0.00     0.337 C   
ENDBRANCH  19  20
ENDBRANCH  16  19
ENDBRANCH  15  16
BRANCH  15  29
ATOM     29  C19 UNL     1       0.253   2.232  -1.859  1.00  0.00     0.010 C   
ATOM     30  C20 UNL     1      -0.909   2.197  -2.878  1.00  0.00     0.017 C   
ATOM     31  C21 UNL     1       1.472   1.530  -2.490  1.00  0.00     0.017 C   
ATOM     32  C22 UNL     1       0.610   3.721  -1.641  1.00  0.00     0.017 C   
ENDBRANCH  15  29
ENDBRANCH   3  15
TORSDOF 7
