REMARK SMILES CC(C)[C@H]([NH2+]Cc1ccc2c(c1)OCO2)c1cn([C@@H](CO)c2ccc(Cl)cn2)nn1
REMARK SMILES IDX 16 1 17 2 18 3 29 4 30 5 4 7 2 8 1 9 3 10 5 11 6 14 7 15
REMARK SMILES IDX 8 16 12 17 9 18 11 19 10 20 13 21 15 22 14 23 19 24 20 25
REMARK SMILES IDX 21 26 22 28 23 29 28 30 24 31 27 32 25 33 26 34
REMARK H PARENT 17 6 5 12 5 13 21 27
ROOT
ATOM     1   C13 UNL     1      -1.092  -0.083   0.184  1.00  0.00     0.127 A   
ATOM     2   C14 UNL     1      -0.443   0.956  -0.442  1.00  0.00     0.046 A   
ATOM     3   N2  UNL     1      -0.792   2.061   0.287  1.00  0.00    -0.201 N   
ATOM     4   N4  UNL     1      -1.628   1.720   1.290  1.00  0.00    -0.075 NA  
ATOM     5   N5  UNL     1      -1.816   0.411   1.238  1.00  0.00    -0.132 NA  
ATOM     6   H18 UNL     1       0.251   1.006  -1.271  1.00  0.00     0.083 HD  
ENDROOT
BRANCH   1   7
ATOM     7   C4  UNL     1      -1.006  -1.554  -0.043  1.00  0.00     0.117 C   
BRANCH   7   8
ATOM     8   C2  UNL     1      -2.209  -2.155  -0.817  1.00  0.00     0.037 C   
ATOM     9   C1  UNL     1      -2.284  -1.603  -2.246  1.00  0.00     0.014 C   
ATOM     10  C3  UNL     1      -3.566  -1.981  -0.126  1.00  0.00     0.014 C   
ENDBRANCH   7   8
BRANCH   7  11
ATOM     11  N1  UNL     1      -0.864  -2.283   1.276  1.00  0.00     0.249 N   
ATOM     12  H9  UNL     1      -1.654  -1.987   1.864  1.00  0.00     0.199 HD  
ATOM     13  H10 UNL     1      -0.948  -3.293   1.129  1.00  0.00     0.199 HD  
BRANCH  11  14
ATOM     14  C5  UNL     1       0.381  -2.001   2.058  1.00  0.00     0.164 C   
BRANCH  14  15
ATOM     15  C6  UNL     1       1.641  -2.389   1.335  1.00  0.00    -0.002 A   
ATOM     16  C7  UNL     1       2.506  -1.390   0.827  1.00  0.00     0.012 A   
ATOM     17  C11 UNL     1       1.955  -3.744   1.133  1.00  0.00     0.045 A   
ATOM     18  C8  UNL     1       3.664  -1.732   0.120  1.00  0.00     0.037 A   
ATOM     19  C10 UNL     1       3.104  -4.046   0.431  1.00  0.00     0.109 A   
ATOM     20  C9  UNL     1       3.934  -3.070  -0.062  1.00  0.00     0.108 A   
ATOM     21  O1  UNL     1       3.546  -5.299   0.144  1.00  0.00    -0.316 OA  
ATOM     22  O2  UNL     1       5.004  -3.585  -0.721  1.00  0.00    -0.316 OA  
ATOM     23  C12 UNL     1       4.773  -5.000  -0.561  1.00  0.00     0.337 C   
ENDBRANCH  14  15
ENDBRANCH  11  14
ENDBRANCH   7  11
ENDBRANCH   1   7
BRANCH   3  24
ATOM     24  C15 UNL     1      -0.298   3.430   0.179  1.00  0.00     0.174 C   
BRANCH  24  25
ATOM     25  C16 UNL     1       1.117   3.550   0.774  1.00  0.00     0.187 C   
BRANCH  25  26
ATOM     26  O3  UNL     1       2.080   2.726   0.108  1.00  0.00    -0.394 OA  
ATOM     27  H22 UNL     1       2.113   3.058  -0.818  1.00  0.00     0.210 HD  
ENDBRANCH  25  26
ENDBRANCH  24  25
BRANCH  24  28
ATOM     28  C17 UNL     1      -0.398   3.925  -1.255  1.00  0.00     0.065 A   
ATOM     29  C18 UNL     1      -1.596   4.471  -1.725  1.00  0.00     0.027 A   
ATOM     30  N3  UNL     1       0.694   3.782  -2.056  1.00  0.00    -0.258 NA  
ATOM     31  C19 UNL     1      -1.673   4.901  -3.050  1.00  0.00     0.024 A   
ATOM     32  C21 UNL     1       0.588   4.217  -3.340  1.00  0.00     0.131 A   
ATOM     33  C20 UNL     1      -0.562   4.774  -3.873  1.00  0.00     0.059 A   
ATOM     34  CL1 UNL     1      -0.619   5.288  -5.508  1.00  0.00    -0.083 Cl  
ENDBRANCH  24  28
ENDBRANCH   3  24
TORSDOF 9
