REMARK SMILES CC(C)[C@H]([NH2+]Cc1ccc2c(c1)OCO2)c1cn([C@H](CO)c2ccc(Cl)cn2)nn1
REMARK SMILES IDX 16 1 17 2 18 3 29 4 30 5 4 7 2 8 1 9 3 10 5 11 6 14 7 15
REMARK SMILES IDX 8 16 12 17 9 18 11 19 10 20 13 21 15 22 14 23 19 24 20 25
REMARK SMILES IDX 21 26 22 28 23 29 28 30 24 31 27 32 25 33 26 34
REMARK H PARENT 17 6 5 12 5 13 21 27
ROOT
ATOM     1   C13 UNL     1       0.963  -1.313  -1.019  1.00  0.00     0.127 A   
ATOM     2   C14 UNL     1       0.047  -1.403   0.002  1.00  0.00     0.046 A   
ATOM     3   N2  UNL     1       0.812  -1.526   1.131  1.00  0.00    -0.201 N   
ATOM     4   N4  UNL     1       2.126  -1.473   0.821  1.00  0.00    -0.075 NA  
ATOM     5   N5  UNL     1       2.230  -1.352  -0.492  1.00  0.00    -0.132 NA  
ATOM     6   H18 UNL     1      -1.035  -1.404   0.035  1.00  0.00     0.083 HD  
ENDROOT
BRANCH   1   7
ATOM     7   C4  UNL     1       0.785  -1.155  -2.495  1.00  0.00     0.117 C   
BRANCH   7   8
ATOM     8   C2  UNL     1       0.577  -2.515  -3.212  1.00  0.00     0.037 C   
ATOM     9   C1  UNL     1       0.138  -2.321  -4.669  1.00  0.00     0.014 C   
ATOM     10  C3  UNL     1       1.791  -3.450  -3.155  1.00  0.00     0.014 C   
ENDBRANCH   7   8
BRANCH   7  11
ATOM     11  N1  UNL     1       1.979  -0.426  -3.073  1.00  0.00     0.249 N   
ATOM     12  H9  UNL     1       2.743  -0.560  -2.391  1.00  0.00     0.199 HD  
ATOM     13  H10 UNL     1       2.301  -0.869  -3.936  1.00  0.00     0.199 HD  
BRANCH  11  14
ATOM     14  C5  UNL     1       1.812   1.035  -3.311  1.00  0.00     0.164 C   
BRANCH  14  15
ATOM     15  C6  UNL     1       1.458   1.832  -2.086  1.00  0.00    -0.002 A   
ATOM     16  C7  UNL     1       2.392   1.995  -1.034  1.00  0.00     0.012 A   
ATOM     17  C11 UNL     1       0.184   2.415  -1.970  1.00  0.00     0.045 A   
ATOM     18  C8  UNL     1       2.062   2.718   0.118  1.00  0.00     0.037 A   
ATOM     19  C10 UNL     1      -0.106   3.126  -0.825  1.00  0.00     0.109 A   
ATOM     20  C9  UNL     1       0.804   3.272   0.192  1.00  0.00     0.108 A   
ATOM     21  O1  UNL     1      -1.283   3.754  -0.564  1.00  0.00    -0.316 OA  
ATOM     22  O2  UNL     1       0.315   4.008   1.223  1.00  0.00    -0.316 OA  
ATOM     23  C12 UNL     1      -0.988   4.365   0.712  1.00  0.00     0.337 C   
ENDBRANCH  14  15
ENDBRANCH  11  14
ENDBRANCH   7  11
ENDBRANCH   1   7
BRANCH   3  24
ATOM     24  C15 UNL     1       0.395  -1.686   2.518  1.00  0.00     0.174 C   
BRANCH  24  25
ATOM     25  C16 UNL     1      -0.368  -3.004   2.744  1.00  0.00     0.187 C   
BRANCH  25  26
ATOM     26  O3  UNL     1      -1.612  -3.070   2.041  1.00  0.00    -0.394 OA  
ATOM     27  H22 UNL     1      -2.151  -2.323   2.383  1.00  0.00     0.210 HD  
ENDBRANCH  25  26
ENDBRANCH  24  25
BRANCH  24  28
ATOM     28  C17 UNL     1      -0.356  -0.450   2.986  1.00  0.00     0.065 A   
ATOM     29  C18 UNL     1       0.350   0.688   3.386  1.00  0.00     0.027 A   
ATOM     30  N3  UNL     1      -1.718  -0.485   2.975  1.00  0.00    -0.258 NA  
ATOM     31  C19 UNL     1      -0.355   1.815   3.808  1.00  0.00     0.024 A   
ATOM     32  C21 UNL     1      -2.376   0.627   3.397  1.00  0.00     0.131 A   
ATOM     33  C20 UNL     1      -1.743   1.784   3.818  1.00  0.00     0.059 A   
ATOM     34  CL1 UNL     1      -2.646   3.150   4.327  1.00  0.00    -0.083 Cl  
ENDBRANCH  24  28
ENDBRANCH   3  24
TORSDOF 9
