REMARK SMILES Cc1cccc([C@@H](CO)n2cc([C@@H]([NH2+]Cc3ccc4c(c3)OCO4)C(C)C)nn2)c1C
REMARK SMILES IDX 10 1 11 2 12 3 28 4 29 5 7 7 6 8 2 9 3 10 30 11 4 12 5 13
REMARK SMILES IDX 1 14 31 15 8 16 9 17 13 19 14 20 15 23 16 24 17 25 21 26
REMARK SMILES IDX 18 27 20 28 19 29 22 30 24 31 23 32 25 33 26 34 27 35
REMARK H PARENT 11 6 9 18 14 21 14 22
ROOT
ATOM     1   N1  UNL     1      -0.032   0.887  -1.311  1.00  0.00    -0.202 N   
ATOM     2   C9  UNL     1       0.988   0.613  -0.436  1.00  0.00     0.046 A   
ATOM     3   C10 UNL     1       0.412  -0.209   0.507  1.00  0.00     0.127 A   
ATOM     4   N3  UNL     1      -0.916  -0.376   0.206  1.00  0.00    -0.132 NA  
ATOM     5   N4  UNL     1      -1.181   0.313  -0.891  1.00  0.00    -0.075 NA  
ATOM     6   H11 UNL     1       1.986   1.007  -0.569  1.00  0.00     0.083 HD  
ENDROOT
BRANCH   1   7
ATOM     7   C7  UNL     1       0.030   1.699  -2.530  1.00  0.00     0.155 C   
BRANCH   7   8
ATOM     8   C6  UNL     1      -0.086   0.809  -3.769  1.00  0.00    -0.020 A   
ATOM     9   C2  UNL     1       0.863  -0.350  -5.713  1.00  0.00    -0.048 A   
ATOM     10  C3  UNL     1      -0.422  -0.794  -6.060  1.00  0.00     0.004 A   
ATOM     11  C23 UNL     1       1.048   0.436  -4.546  1.00  0.00    -0.043 A   
ATOM     12  C4  UNL     1      -1.524  -0.460  -5.283  1.00  0.00     0.001 A   
ATOM     13  C5  UNL     1      -1.359   0.334  -4.152  1.00  0.00     0.006 A   
ATOM     14  C1  UNL     1       2.011  -0.746  -6.609  1.00  0.00     0.044 C   
ATOM     15  C24 UNL     1       2.432   0.913  -4.167  1.00  0.00     0.045 C   
ENDBRANCH   7   8
BRANCH   7  16
ATOM     16  C8  UNL     1      -0.984   2.861  -2.494  1.00  0.00     0.185 C   
BRANCH  16  17
ATOM     17  O1  UNL     1      -0.581   3.839  -1.527  1.00  0.00    -0.394 OA  
ATOM     18  H10 UNL     1      -1.190   4.595  -1.622  1.00  0.00     0.210 HD  
ENDBRANCH  16  17
ENDBRANCH   7  16
ENDBRANCH   1   7
BRANCH   3  19
ATOM     19  C11 UNL     1       0.968  -0.841   1.742  1.00  0.00     0.117 C   
BRANCH  19  20
ATOM     20  N2  UNL     1      -0.131  -1.033   2.759  1.00  0.00     0.249 N   
ATOM     21  H13 UNL     1      -0.941  -1.418   2.248  1.00  0.00     0.199 HD  
ATOM     22  H14 UNL     1       0.123  -1.728   3.469  1.00  0.00     0.199 HD  
BRANCH  20  23
ATOM     23  C12 UNL     1      -0.595   0.211   3.434  1.00  0.00     0.164 C   
BRANCH  23  24
ATOM     24  C13 UNL     1      -1.775  -0.080   4.318  1.00  0.00    -0.002 A   
ATOM     25  C14 UNL     1      -3.083  -0.078   3.774  1.00  0.00     0.012 A   
ATOM     26  C18 UNL     1      -1.588  -0.403   5.672  1.00  0.00     0.045 A   
ATOM     27  C15 UNL     1      -4.192  -0.380   4.571  1.00  0.00     0.037 A   
ATOM     28  C17 UNL     1      -2.705  -0.692   6.430  1.00  0.00     0.109 A   
ATOM     29  C16 UNL     1      -3.970  -0.682   5.896  1.00  0.00     0.108 A   
ATOM     30  O2  UNL     1      -2.702  -1.004   7.752  1.00  0.00    -0.316 OA  
ATOM     31  O3  UNL     1      -4.922  -0.993   6.814  1.00  0.00    -0.316 OA  
ATOM     32  C19 UNL     1      -4.119  -1.155   8.001  1.00  0.00     0.337 C   
ENDBRANCH  23  24
ENDBRANCH  20  23
ENDBRANCH  19  20
BRANCH  19  33
ATOM     33  C20 UNL     1       1.658  -2.210   1.501  1.00  0.00     0.037 C   
ATOM     34  C21 UNL     1       0.739  -3.276   0.888  1.00  0.00     0.014 C   
ATOM     35  C22 UNL     1       2.924  -2.065   0.647  1.00  0.00     0.014 C   
ENDBRANCH  19  33
ENDBRANCH   3  19
TORSDOF 9
