REMARK SMILES Cc1cccc([C@H](CO)n2cc([C@@H]([NH2+]Cc3ccc4c(c3)OCO4)C(C)C)nn2)c1C
REMARK SMILES IDX 10 1 11 2 12 3 28 4 29 5 7 7 6 8 2 9 3 10 30 11 4 12 5 13
REMARK SMILES IDX 1 14 31 15 8 16 9 17 13 19 14 20 15 23 16 24 17 25 21 26
REMARK SMILES IDX 18 27 20 28 19 29 22 30 24 31 23 32 25 33 26 34 27 35
REMARK H PARENT 11 6 9 18 14 21 14 22
ROOT
ATOM     1   N1  UNL     1      -0.935  -0.932  -0.984  1.00  0.00    -0.202 N   
ATOM     2   C9  UNL     1      -0.805   0.408  -1.252  1.00  0.00     0.046 A   
ATOM     3   C10 UNL     1       0.528   0.671  -1.035  1.00  0.00     0.127 A   
ATOM     4   N3  UNL     1       1.153  -0.488  -0.645  1.00  0.00    -0.132 NA  
ATOM     5   N4  UNL     1       0.247  -1.449  -0.589  1.00  0.00    -0.075 NA  
ATOM     6   H11 UNL     1      -1.648   1.016  -1.552  1.00  0.00     0.083 HD  
ENDROOT
BRANCH   1   7
ATOM     7   C7  UNL     1      -2.153  -1.744  -1.074  1.00  0.00     0.155 C   
BRANCH   7   8
ATOM     8   C6  UNL     1      -3.144  -1.307   0.012  1.00  0.00    -0.020 A   
ATOM     9   C2  UNL     1      -5.284  -0.366   0.744  1.00  0.00    -0.048 A   
ATOM     10  C3  UNL     1      -4.843  -0.440   2.075  1.00  0.00     0.004 A   
ATOM     11  C23 UNL     1      -4.446  -0.828  -0.300  1.00  0.00    -0.043 A   
ATOM     12  C4  UNL     1      -3.588  -0.954   2.385  1.00  0.00     0.001 A   
ATOM     13  C5  UNL     1      -2.745  -1.378   1.364  1.00  0.00     0.006 A   
ATOM     14  C1  UNL     1      -6.668   0.177   0.490  1.00  0.00     0.044 C   
ATOM     15  C24 UNL     1      -4.930  -0.819  -1.732  1.00  0.00     0.045 C   
ENDBRANCH   7   8
BRANCH   7  16
ATOM     16  C8  UNL     1      -1.883  -3.263  -1.060  1.00  0.00     0.185 C   
BRANCH  16  17
ATOM     17  O1  UNL     1      -3.007  -3.969  -1.591  1.00  0.00    -0.394 OA  
ATOM     18  H10 UNL     1      -2.840  -4.921  -1.459  1.00  0.00     0.210 HD  
ENDBRANCH  16  17
ENDBRANCH   7  16
ENDBRANCH   1   7
BRANCH   3  19
ATOM     19  C11 UNL     1       1.318   1.945  -1.110  1.00  0.00     0.117 C   
BRANCH  19  20
ATOM     20  N2  UNL     1       2.464   1.858  -0.129  1.00  0.00     0.249 N   
ATOM     21  H13 UNL     1       3.195   2.550  -0.310  1.00  0.00     0.199 HD  
ATOM     22  H14 UNL     1       2.898   0.932  -0.269  1.00  0.00     0.199 HD  
BRANCH  20  23
ATOM     23  C12 UNL     1       2.092   1.952   1.312  1.00  0.00     0.164 C   
BRANCH  23  24
ATOM     24  C13 UNL     1       3.303   1.711   2.169  1.00  0.00    -0.002 A   
ATOM     25  C14 UNL     1       3.674   0.388   2.510  1.00  0.00     0.012 A   
ATOM     26  C18 UNL     1       4.110   2.785   2.580  1.00  0.00     0.045 A   
ATOM     27  C15 UNL     1       4.832   0.136   3.254  1.00  0.00     0.037 A   
ATOM     28  C17 UNL     1       5.243   2.501   3.314  1.00  0.00     0.109 A   
ATOM     29  C16 UNL     1       5.598   1.216   3.636  1.00  0.00     0.108 A   
ATOM     30  O2  UNL     1       6.125   3.418   3.791  1.00  0.00    -0.316 OA  
ATOM     31  O3  UNL     1       6.750   1.161   4.353  1.00  0.00    -0.316 OA  
ATOM     32  C19 UNL     1       7.075   2.563   4.465  1.00  0.00     0.337 C   
ENDBRANCH  23  24
ENDBRANCH  20  23
ENDBRANCH  19  20
BRANCH  19  33
ATOM     33  C20 UNL     1       1.882   2.214  -2.536  1.00  0.00     0.037 C   
ATOM     34  C21 UNL     1       0.753   2.380  -3.567  1.00  0.00     0.014 C   
ATOM     35  C22 UNL     1       2.768   3.467  -2.603  1.00  0.00     0.014 C   
ENDBRANCH  19  33
ENDBRANCH   3  19
TORSDOF 9
