REMARK SMILES Cc1cc(C(=O)n2cc([C@@H]([NH2+]Cc3ccc4c(c3)OCO4)C3CCCC3)nn2)nc(Cl)n1
REMARK SMILES IDX 7 1 8 2 9 3 27 4 28 5 5 6 6 7 4 8 2 9 3 10 32 11 30 12 29 13
REMARK SMILES IDX 1 14 31 15 10 16 11 17 12 20 13 21 14 22 18 23 15 24 17 25
REMARK SMILES IDX 16 26 19 27 21 28 20 29 22 30 23 31 26 32 24 33 25 34
REMARK H PARENT 11 18 11 19
ROOT
ATOM     1   N1  UNL     1      -1.929   0.934   1.478  1.00  0.00    -0.142 N   
ATOM     2   C6  UNL     1      -1.921  -0.006   0.460  1.00  0.00     0.139 A   
ATOM     3   C7  UNL     1      -1.391  -1.144   1.021  1.00  0.00     0.128 A   
ATOM     4   N3  UNL     1      -1.141  -0.916   2.344  1.00  0.00    -0.131 NA  
ATOM     5   N4  UNL     1      -1.495   0.327   2.621  1.00  0.00    -0.068 NA  
ENDROOT
BRANCH   1   6
ATOM     6   C5  UNL     1      -2.280   2.299   1.496  1.00  0.00     0.289 C   
ATOM     7   O1  UNL     1      -2.292   2.870   2.589  1.00  0.00    -0.268 OA  
BRANCH   6   8
ATOM     8   C4  UNL     1      -2.625   3.098   0.288  1.00  0.00     0.133 A   
ATOM     9   C2  UNL     1      -3.445   5.056  -0.717  1.00  0.00     0.043 A   
ATOM     10  C3  UNL     1      -3.176   4.359   0.444  1.00  0.00     0.057 A   
ATOM     11  N6  UNL     1      -3.213   4.532  -1.935  1.00  0.00    -0.223 NA  
ATOM     12  C22 UNL     1      -2.687   3.306  -1.961  1.00  0.00     0.223 A   
ATOM     13  N5  UNL     1      -2.371   2.544  -0.908  1.00  0.00    -0.213 NA  
ATOM     14  C1  UNL     1      -4.060   6.423  -0.661  1.00  0.00     0.067 C   
ATOM     15  CL1 UNL     1      -2.381   2.626  -3.493  1.00  0.00    -0.041 Cl  
ENDBRANCH   6   8
ENDBRANCH   1   6
BRANCH   3  16
ATOM     16  C8  UNL     1      -0.983  -2.449   0.413  1.00  0.00     0.117 C   
BRANCH  16  17
ATOM     17  N2  UNL     1       0.384  -2.836   0.934  1.00  0.00     0.249 N   
ATOM     18  H7  UNL     1       0.448  -2.438   1.885  1.00  0.00     0.199 HD  
ATOM     19  H8  UNL     1       0.460  -3.849   1.055  1.00  0.00     0.199 HD  
BRANCH  17  20
ATOM     20  C9  UNL     1       1.558  -2.360   0.142  1.00  0.00     0.164 C   
BRANCH  20  21
ATOM     21  C10 UNL     1       1.646  -0.865   0.007  1.00  0.00    -0.002 A   
ATOM     22  C11 UNL     1       1.952  -0.060   1.130  1.00  0.00     0.012 A   
ATOM     23  C15 UNL     1       1.381  -0.249  -1.229  1.00  0.00     0.045 A   
ATOM     24  C12 UNL     1       1.961   1.336   1.036  1.00  0.00     0.037 A   
ATOM     25  C14 UNL     1       1.407   1.129  -1.290  1.00  0.00     0.109 A   
ATOM     26  C13 UNL     1       1.680   1.899  -0.189  1.00  0.00     0.108 A   
ATOM     27  O2  UNL     1       1.157   1.877  -2.397  1.00  0.00    -0.316 OA  
ATOM     28  O3  UNL     1       1.625   3.229  -0.460  1.00  0.00    -0.316 OA  
ATOM     29  C16 UNL     1       1.369   3.209  -1.881  1.00  0.00     0.337 C   
ENDBRANCH  20  21
ENDBRANCH  17  20
ENDBRANCH  16  17
BRANCH  16  30
ATOM     30  C17 UNL     1      -2.019  -3.555   0.694  1.00  0.00     0.043 C   
ATOM     31  C18 UNL     1      -2.152  -4.019   2.151  1.00  0.00     0.010 C   
ATOM     32  C21 UNL     1      -1.772  -4.864  -0.061  1.00  0.00     0.010 C   
ATOM     33  C19 UNL     1      -2.749  -5.425   2.081  1.00  0.00     0.001 C   
ATOM     34  C20 UNL     1      -2.746  -5.825   0.607  1.00  0.00     0.001 C   
ENDBRANCH  16  30
ENDBRANCH   3  16
TORSDOF 7
