REMARK SMILES Cc1cccc(CCn2cc([C@@H]([NH2+]Cc3ccc4c(c3)OCO4)C(C)C)nn2)n1
REMARK SMILES IDX 9 1 10 2 11 3 27 4 28 5 8 7 7 8 6 9 2 10 3 11 29 12 4 13
REMARK SMILES IDX 5 14 1 15 12 16 13 17 14 20 15 21 16 22 20 23 17 24 19 25
REMARK SMILES IDX 18 26 21 27 23 28 22 29 24 30 25 31 26 32
REMARK H PARENT 10 6 13 18 13 19
ROOT
ATOM     1   N1  UNL     1       2.933  -1.734   0.523  1.00  0.00    -0.212 N   
ATOM     2   C9  UNL     1       1.861  -1.243   1.208  1.00  0.00     0.045 A   
ATOM     3   C10 UNL     1       0.778  -1.841   0.604  1.00  0.00     0.127 A   
ATOM     4   N3  UNL     1       1.220  -2.674  -0.387  1.00  0.00    -0.132 NA  
ATOM     5   N4  UNL     1       2.541  -2.602  -0.426  1.00  0.00    -0.076 NA  
ATOM     6   H11 UNL     1       1.970  -0.509   1.995  1.00  0.00     0.083 HD  
ENDROOT
BRANCH   1   7
ATOM     7   C8  UNL     1       4.328  -1.364   0.662  1.00  0.00     0.140 C   
BRANCH   7   8
ATOM     8   C7  UNL     1       4.889  -0.688  -0.587  1.00  0.00     0.077 C   
BRANCH   8   9
ATOM     9   C6  UNL     1       4.149   0.571  -0.975  1.00  0.00     0.042 A   
ATOM     10  C2  UNL     1       3.177   2.578  -0.316  1.00  0.00     0.038 A   
ATOM     11  C3  UNL     1       2.912   2.930  -1.635  1.00  0.00     0.023 A   
ATOM     12  N5  UNL     1       3.765   1.404   0.025  1.00  0.00    -0.258 NA  
ATOM     13  C4  UNL     1       3.299   2.060  -2.651  1.00  0.00     0.004 A   
ATOM     14  C5  UNL     1       3.936   0.869  -2.319  1.00  0.00     0.024 A   
ATOM     15  C1  UNL     1       2.815   3.521   0.797  1.00  0.00     0.067 C   
ENDBRANCH   8   9
ENDBRANCH   7   8
ENDBRANCH   1   7
BRANCH   3  16
ATOM     16  C11 UNL     1      -0.688  -1.635   0.801  1.00  0.00     0.117 C   
BRANCH  16  17
ATOM     17  N2  UNL     1      -1.405  -1.699  -0.527  1.00  0.00     0.249 N   
ATOM     18  H13 UNL     1      -1.105  -2.579  -0.963  1.00  0.00     0.199 HD  
ATOM     19  H14 UNL     1      -2.417  -1.745  -0.396  1.00  0.00     0.199 HD  
BRANCH  17  20
ATOM     20  C12 UNL     1      -1.093  -0.616  -1.506  1.00  0.00     0.164 C   
BRANCH  20  21
ATOM     21  C13 UNL     1      -1.692   0.710  -1.126  1.00  0.00    -0.002 A   
ATOM     22  C14 UNL     1      -3.038   1.001  -1.444  1.00  0.00     0.012 A   
ATOM     23  C18 UNL     1      -0.926   1.663  -0.426  1.00  0.00     0.045 A   
ATOM     24  C15 UNL     1      -3.617   2.221  -1.073  1.00  0.00     0.037 A   
ATOM     25  C17 UNL     1      -1.530   2.855  -0.068  1.00  0.00     0.109 A   
ATOM     26  C16 UNL     1      -2.836   3.126  -0.384  1.00  0.00     0.108 A   
ATOM     27  O1  UNL     1      -0.945   3.870   0.620  1.00  0.00    -0.316 OA  
ATOM     28  O2  UNL     1      -3.237   4.345   0.053  1.00  0.00    -0.316 OA  
ATOM     29  C19 UNL     1      -2.022   4.835   0.661  1.00  0.00     0.337 C   
ENDBRANCH  20  21
ENDBRANCH  17  20
ENDBRANCH  16  17
BRANCH  16  30
ATOM     30  C20 UNL     1      -1.301  -2.659   1.796  1.00  0.00     0.037 C   
ATOM     31  C21 UNL     1      -1.381  -4.093   1.256  1.00  0.00     0.014 C   
ATOM     32  C22 UNL     1      -2.691  -2.211   2.272  1.00  0.00     0.014 C   
ENDBRANCH  16  30
ENDBRANCH   3  16
TORSDOF 8
