REMARK SMILES COc1ccc(F)cc1Cn1cc([C@H](CC(C)C)[NH2+]Cc2ccc3c(c2)OCO3)nn1
REMARK SMILES IDX 11 1 12 2 13 3 30 4 31 5 10 7 9 8 3 9 4 10 5 11 8 12 6 13
REMARK SMILES IDX 7 14 2 15 1 16 14 17 15 18 16 19 17 20 18 21 19 22 20 25
REMARK SMILES IDX 21 26 22 27 26 28 23 29 25 30 24 31 27 32 29 33 28 34
REMARK H PARENT 12 6 19 23 19 24
ROOT
ATOM     1   N1  UNL     1       0.067  -0.789   2.327  1.00  0.00    -0.208 N   
ATOM     2   C9  UNL     1       0.124  -0.625   0.970  1.00  0.00     0.046 A   
ATOM     3   C10 UNL     1      -0.903   0.250   0.697  1.00  0.00     0.127 A   
ATOM     4   N3  UNL     1      -1.575   0.531   1.859  1.00  0.00    -0.132 NA  
ATOM     5   N4  UNL     1      -0.987  -0.127   2.844  1.00  0.00    -0.076 NA  
ATOM     6   H9  UNL     1       0.885  -1.097   0.364  1.00  0.00     0.083 HD  
ENDROOT
BRANCH   1   7
ATOM     7   C8  UNL     1       0.949  -1.566   3.181  1.00  0.00     0.172 C   
BRANCH   7   8
ATOM     8   C7  UNL     1       2.229  -0.816   3.457  1.00  0.00     0.005 A   
ATOM     9   C2  UNL     1       3.378  -0.999   2.660  1.00  0.00     0.080 A   
ATOM     10  C3  UNL     1       4.540  -0.269   2.938  1.00  0.00     0.037 A   
ATOM     11  C4  UNL     1       4.566   0.639   4.000  1.00  0.00     0.042 A   
ATOM     12  C6  UNL     1       2.269   0.107   4.516  1.00  0.00     0.047 A   
ATOM     13  C5  UNL     1       3.432   0.820   4.777  1.00  0.00     0.123 A   
ATOM     14  F1  UNL     1       3.455   1.697   5.788  1.00  0.00    -0.207 F   
BRANCH   9  15
ATOM     15  O1  UNL     1       3.251  -1.893   1.628  1.00  0.00    -0.349 OA  
ATOM     16  C1  UNL     1       4.450  -2.289   0.967  1.00  0.00     0.203 C   
ENDBRANCH   9  15
ENDBRANCH   7   8
ENDBRANCH   1   7
BRANCH   3  17
ATOM     17  C11 UNL     1      -1.368   0.854  -0.584  1.00  0.00     0.114 C   
BRANCH  17  18
ATOM     18  C12 UNL     1      -0.786   2.263  -0.817  1.00  0.00     0.064 C   
BRANCH  18  19
ATOM     19  C13 UNL     1       0.749   2.328  -0.970  1.00  0.00    -0.012 C   
ATOM     20  C14 UNL     1       1.190   3.785  -1.131  1.00  0.00     0.007 C   
ATOM     21  C15 UNL     1       1.253   1.504  -2.156  1.00  0.00     0.007 C   
ENDBRANCH  18  19
ENDBRANCH  17  18
BRANCH  17  22
ATOM     22  N2  UNL     1      -2.878   1.006  -0.570  1.00  0.00     0.249 N   
ATOM     23  H20 UNL     1      -3.107   1.490   0.310  1.00  0.00     0.199 HD  
ATOM     24  H21 UNL     1      -3.179   1.611  -1.339  1.00  0.00     0.199 HD  
BRANCH  22  25
ATOM     25  C16 UNL     1      -3.671  -0.259  -0.599  1.00  0.00     0.164 C   
BRANCH  25  26
ATOM     26  C17 UNL     1      -3.510  -1.022  -1.884  1.00  0.00    -0.002 A   
ATOM     27  C18 UNL     1      -2.768  -2.228  -1.909  1.00  0.00     0.012 A   
ATOM     28  C22 UNL     1      -4.069  -0.530  -3.076  1.00  0.00     0.045 A   
ATOM     29  C19 UNL     1      -2.578  -2.931  -3.103  1.00  0.00     0.037 A   
ATOM     30  C21 UNL     1      -3.862  -1.248  -4.236  1.00  0.00     0.109 A   
ATOM     31  C20 UNL     1      -3.137  -2.413  -4.250  1.00  0.00     0.108 A   
ATOM     32  O2  UNL     1      -4.325  -0.909  -5.467  1.00  0.00    -0.316 OA  
ATOM     33  O3  UNL     1      -3.053  -2.957  -5.492  1.00  0.00    -0.316 OA  
ATOM     34  C23 UNL     1      -3.836  -2.016  -6.258  1.00  0.00     0.337 C   
ENDBRANCH  25  26
ENDBRANCH  22  25
ENDBRANCH  17  22
ENDBRANCH   3  17
TORSDOF 9
