REMARK SMILES CC(C)[C@H]([NH2+]Cc1ccc2c(c1)OCO2)c1cn([C@@H](CO)c2cccc(F)c2O)nn1
REMARK SMILES IDX 16 1 17 2 18 3 30 4 31 5 4 7 2 8 1 9 3 10 5 11 6 14 7 15
REMARK SMILES IDX 8 16 12 17 9 18 11 19 10 20 13 21 15 22 14 23 19 24 20 25
REMARK SMILES IDX 21 26 22 28 23 29 28 30 24 31 26 32 25 33 27 34 29 35
REMARK H PARENT 17 6 5 12 5 13 21 27 29 36
ROOT
ATOM     1   C13 UNL     1       1.037   1.415  -0.004  1.00  0.00     0.127 A   
ATOM     2   C14 UNL     1       2.013   1.761   0.901  1.00  0.00     0.046 A   
ATOM     3   N2  UNL     1       1.318   2.066   2.042  1.00  0.00    -0.202 N   
ATOM     4   N3  UNL     1      -0.006   1.866   1.858  1.00  0.00    -0.075 NA  
ATOM     5   N4  UNL     1      -0.189   1.479   0.607  1.00  0.00    -0.132 NA  
ATOM     6   H18 UNL     1       3.091   1.827   0.854  1.00  0.00     0.083 HD  
ENDROOT
BRANCH   1   7
ATOM     7   C4  UNL     1       1.129   0.954  -1.421  1.00  0.00     0.117 C   
BRANCH   7   8
ATOM     8   C2  UNL     1       1.067   2.097  -2.468  1.00  0.00     0.037 C   
ATOM     9   C1  UNL     1      -0.223   2.924  -2.421  1.00  0.00     0.014 C   
ATOM     10  C3  UNL     1       2.281   3.026  -2.364  1.00  0.00     0.014 C   
ENDBRANCH   7   8
BRANCH   7  11
ATOM     11  N1  UNL     1       0.017  -0.022  -1.715  1.00  0.00     0.249 N   
ATOM     12  H9  UNL     1      -0.846   0.390  -1.329  1.00  0.00     0.199 HD  
ATOM     13  H10 UNL     1      -0.135  -0.127  -2.723  1.00  0.00     0.199 HD  
BRANCH  11  14
ATOM     14  C5  UNL     1       0.171  -1.368  -1.099  1.00  0.00     0.164 C   
BRANCH  14  15
ATOM     15  C6  UNL     1      -1.028  -2.222  -1.400  1.00  0.00    -0.002 A   
ATOM     16  C7  UNL     1      -2.190  -2.122  -0.597  1.00  0.00     0.012 A   
ATOM     17  C11 UNL     1      -1.026  -3.081  -2.512  1.00  0.00     0.045 A   
ATOM     18  C8  UNL     1      -3.332  -2.877  -0.887  1.00  0.00     0.037 A   
ATOM     19  C10 UNL     1      -2.169  -3.807  -2.772  1.00  0.00     0.109 A   
ATOM     20  C9  UNL     1      -3.289  -3.710  -1.983  1.00  0.00     0.108 A   
ATOM     21  O1  UNL     1      -2.334  -4.674  -3.805  1.00  0.00    -0.316 OA  
ATOM     22  O2  UNL     1      -4.299  -4.509  -2.415  1.00  0.00    -0.316 OA  
ATOM     23  C12 UNL     1      -3.690  -5.122  -3.571  1.00  0.00     0.337 C   
ENDBRANCH  14  15
ENDBRANCH  11  14
ENDBRANCH   7  11
ENDBRANCH   1   7
BRANCH   3  24
ATOM     24  C15 UNL     1       1.858   2.521   3.324  1.00  0.00     0.158 C   
BRANCH  24  25
ATOM     25  C16 UNL     1       1.252   3.875   3.739  1.00  0.00     0.186 C   
BRANCH  25  26
ATOM     26  O3  UNL     1       1.743   4.916   2.890  1.00  0.00    -0.394 OA  
ATOM     27  H22 UNL     1       1.369   5.754   3.219  1.00  0.00     0.210 HD  
ENDBRANCH  25  26
ENDBRANCH  24  25
BRANCH  24  28
ATOM     28  C17 UNL     1       1.734   1.412   4.358  1.00  0.00     0.010 A   
ATOM     29  C18 UNL     1       0.614   1.296   5.204  1.00  0.00     0.009 A   
ATOM     30  C22 UNL     1       2.737   0.441   4.473  1.00  0.00     0.112 A   
ATOM     31  C19 UNL     1       0.524   0.264   6.149  1.00  0.00     0.004 A   
ATOM     32  C21 UNL     1       2.642  -0.584   5.416  1.00  0.00     0.153 A   
ATOM     33  C20 UNL     1       1.545  -0.678   6.259  1.00  0.00     0.042 A   
ATOM     34  F1  UNL     1       3.626  -1.492   5.494  1.00  0.00    -0.204 F   
BRANCH  30  35
ATOM     35  O4  UNL     1       3.826   0.490   3.643  1.00  0.00    -0.358 OA  
ATOM     36  H26 UNL     1       4.443  -0.205   3.951  1.00  0.00     0.218 HD  
ENDBRANCH  30  35
ENDBRANCH  24  28
ENDBRANCH   3  24
TORSDOF 10
