REMARK SMILES CC(C)[C@H]([NH2+]Cc1ccc2c(c1)OCO2)c1cn([C@H](CO)c2cccc(F)c2O)nn1
REMARK SMILES IDX 16 1 17 2 18 3 30 4 31 5 4 7 2 8 1 9 3 10 5 11 6 14 7 15
REMARK SMILES IDX 8 16 12 17 9 18 11 19 10 20 13 21 15 22 14 23 19 24 20 25
REMARK SMILES IDX 21 26 22 28 23 29 28 30 24 31 26 32 25 33 27 34 29 35
REMARK H PARENT 17 6 5 12 5 13 21 27 29 36
ROOT
ATOM     1   C13 UNL     1       0.027   0.922  -0.207  1.00  0.00     0.127 A   
ATOM     2   C14 UNL     1       1.100   1.434   0.485  1.00  0.00     0.046 A   
ATOM     3   N2  UNL     1       0.676   1.466   1.788  1.00  0.00    -0.202 N   
ATOM     4   N3  UNL     1      -0.585   0.992   1.885  1.00  0.00    -0.075 NA  
ATOM     5   N4  UNL     1      -0.983   0.639   0.673  1.00  0.00    -0.132 NA  
ATOM     6   H18 UNL     1       2.079   1.787   0.194  1.00  0.00     0.083 HD  
ENDROOT
BRANCH   1   7
ATOM     7   C4  UNL     1      -0.144   0.609  -1.654  1.00  0.00     0.117 C   
BRANCH   7   8
ATOM     8   C2  UNL     1      -0.870   1.715  -2.463  1.00  0.00     0.037 C   
ATOM     9   C1  UNL     1      -2.307   2.000  -2.006  1.00  0.00     0.014 C   
ATOM     10  C3  UNL     1      -0.067   3.022  -2.479  1.00  0.00     0.014 C   
ENDBRANCH   7   8
BRANCH   7  11
ATOM     11  N1  UNL     1      -0.908  -0.681  -1.812  1.00  0.00     0.249 N   
ATOM     12  H9  UNL     1      -1.711  -0.635  -1.166  1.00  0.00     0.199 HD  
ATOM     13  H10 UNL     1      -1.299  -0.771  -2.755  1.00  0.00     0.199 HD  
BRANCH  11  14
ATOM     14  C5  UNL     1      -0.143  -1.914  -1.473  1.00  0.00     0.164 C   
BRANCH  14  15
ATOM     15  C6  UNL     1      -0.985  -3.135  -1.701  1.00  0.00    -0.002 A   
ATOM     16  C7  UNL     1      -1.789  -3.655  -0.658  1.00  0.00     0.012 A   
ATOM     17  C11 UNL     1      -1.014  -3.744  -2.968  1.00  0.00     0.045 A   
ATOM     18  C8  UNL     1      -2.603  -4.773  -0.870  1.00  0.00     0.037 A   
ATOM     19  C10 UNL     1      -1.827  -4.843  -3.142  1.00  0.00     0.109 A   
ATOM     20  C9  UNL     1      -2.600  -5.345  -2.123  1.00  0.00     0.108 A   
ATOM     21  O1  UNL     1      -1.970  -5.545  -4.298  1.00  0.00    -0.316 OA  
ATOM     22  O2  UNL     1      -3.323  -6.428  -2.508  1.00  0.00    -0.316 OA  
ATOM     23  C12 UNL     1      -2.890  -6.578  -3.877  1.00  0.00     0.337 C   
ENDBRANCH  14  15
ENDBRANCH  11  14
ENDBRANCH   7  11
ENDBRANCH   1   7
BRANCH   3  24
ATOM     24  C15 UNL     1       1.375   1.969   2.971  1.00  0.00     0.158 C   
BRANCH  24  25
ATOM     25  C16 UNL     1       1.276   3.508   3.042  1.00  0.00     0.186 C   
BRANCH  25  26
ATOM     26  O3  UNL     1       1.816   4.157   1.888  1.00  0.00    -0.394 OA  
ATOM     27  H22 UNL     1       1.703   5.117   2.026  1.00  0.00     0.210 HD  
ENDBRANCH  25  26
ENDBRANCH  24  25
BRANCH  24  28
ATOM     28  C17 UNL     1       2.766   1.353   3.091  1.00  0.00     0.010 A   
ATOM     29  C18 UNL     1       3.950   2.061   2.805  1.00  0.00     0.009 A   
ATOM     30  C22 UNL     1       2.903   0.018   3.499  1.00  0.00     0.112 A   
ATOM     31  C19 UNL     1       5.210   1.457   2.939  1.00  0.00     0.004 A   
ATOM     32  C21 UNL     1       4.160  -0.576   3.635  1.00  0.00     0.153 A   
ATOM     33  C20 UNL     1       5.317   0.135   3.359  1.00  0.00     0.042 A   
ATOM     34  F1  UNL     1       4.239  -1.856   4.031  1.00  0.00    -0.204 F   
BRANCH  30  35
ATOM     35  O4  UNL     1       1.783  -0.722   3.773  1.00  0.00    -0.358 OA  
ATOM     36  H26 UNL     1       2.085  -1.574   4.148  1.00  0.00     0.218 HD  
ENDBRANCH  30  35
ENDBRANCH  24  28
ENDBRANCH   3  24
TORSDOF 10
