REMARK SMILES Cc1cnc2c(c1)[C@@H](n1cc([C@@H]([NH2+]Cc3ccc4c(c3)OCO4)C3CCCCC3)nn1)CCO2
REMARK SMILES IDX 12 1 11 2 9 3 10 4 31 5 30 6 8 8 2 9 3 10 7 11 4 12 6 13
REMARK SMILES IDX 5 14 34 15 32 16 33 17 1 18 13 19 14 22 15 23 16 24 20 25
REMARK SMILES IDX 17 26 19 27 18 28 21 29 23 30 22 31 24 32 25 33 29 34 26 35
REMARK SMILES IDX 28 36 27 37
REMARK H PARENT 10 7 13 20 13 21
ROOT
ATOM     1   C10 UNL     1       0.220  -1.290   0.522  1.00  0.00     0.117 C   
ENDROOT
BRANCH   1   2
ATOM     2   C9  UNL     1       0.127  -0.959  -0.937  1.00  0.00     0.127 A   
ATOM     3   N2  UNL     1       0.007  -0.084  -2.921  1.00  0.00    -0.204 N   
ATOM     4   C8  UNL     1       0.112   0.251  -1.597  1.00  0.00     0.046 A   
ATOM     5   N5  UNL     1      -0.085  -1.426  -3.055  1.00  0.00    -0.075 NA  
ATOM     6   N4  UNL     1      -0.028  -1.967  -1.850  1.00  0.00    -0.132 NA  
ATOM     7   H7  UNL     1       0.182   1.275  -1.252  1.00  0.00     0.083 HD  
BRANCH   3   8
ATOM     8   C7  UNL     1      -0.025   0.763  -4.120  1.00  0.00     0.136 C   
ATOM     9   C2  UNL     1       1.635   4.086  -3.272  1.00  0.00    -0.032 A   
ATOM     10  C3  UNL     1       0.482   4.852  -3.159  1.00  0.00     0.117 A   
ATOM     11  C6  UNL     1       1.477   2.741  -3.611  1.00  0.00     0.015 A   
ATOM     12  N1  UNL     1      -0.768   4.366  -3.329  1.00  0.00    -0.232 NA  
ATOM     13  C5  UNL     1       0.190   2.214  -3.798  1.00  0.00     0.025 A   
ATOM     14  C4  UNL     1      -0.898   3.067  -3.652  1.00  0.00     0.172 A   
ATOM     15  O3  UNL     1      -2.194   2.687  -3.834  1.00  0.00    -0.329 OA  
ATOM     16  C25 UNL     1      -1.338   0.627  -4.892  1.00  0.00     0.059 C   
ATOM     17  C26 UNL     1      -2.448   1.311  -4.110  1.00  0.00     0.172 C   
ATOM     18  C1  UNL     1       2.991   4.696  -3.097  1.00  0.00     0.046 C   
ENDBRANCH   3   8
ENDBRANCH   1   2
BRANCH   1  19
ATOM     19  N3  UNL     1      -0.739  -2.429   0.789  1.00  0.00     0.249 N   
ATOM     20  H9  UNL     1      -1.653  -2.132   0.426  1.00  0.00     0.199 HD  
ATOM     21  H10 UNL     1      -0.474  -3.205   0.166  1.00  0.00     0.199 HD  
BRANCH  19  22
ATOM     22  C11 UNL     1      -0.918  -2.920   2.178  1.00  0.00     0.164 C   
BRANCH  22  23
ATOM     23  C12 UNL     1      -1.371  -1.858   3.140  1.00  0.00    -0.002 A   
ATOM     24  C13 UNL     1      -0.541  -1.477   4.222  1.00  0.00     0.012 A   
ATOM     25  C17 UNL     1      -2.616  -1.226   2.970  1.00  0.00     0.045 A   
ATOM     26  C14 UNL     1      -0.937  -0.476   5.116  1.00  0.00     0.037 A   
ATOM     27  C16 UNL     1      -2.971  -0.236   3.865  1.00  0.00     0.109 A   
ATOM     28  C15 UNL     1      -2.157   0.127   4.908  1.00  0.00     0.108 A   
ATOM     29  O1  UNL     1      -4.119   0.492   3.825  1.00  0.00    -0.316 OA  
ATOM     30  O2  UNL     1      -2.691   1.125   5.661  1.00  0.00    -0.316 OA  
ATOM     31  C18 UNL     1      -3.956   1.327   4.993  1.00  0.00     0.337 C   
ENDBRANCH  22  23
ENDBRANCH  19  22
ENDBRANCH   1  19
BRANCH   1  32
ATOM     32  C19 UNL     1       1.659  -1.637   0.992  1.00  0.00     0.043 C   
ATOM     33  C20 UNL     1       2.263  -2.897   0.338  1.00  0.00     0.010 C   
ATOM     34  C24 UNL     1       2.622  -0.441   0.815  1.00  0.00     0.010 C   
ATOM     35  C21 UNL     1       3.655  -3.204   0.891  1.00  0.00     0.001 C   
ATOM     36  C23 UNL     1       4.014  -0.751   1.367  1.00  0.00     0.001 C   
ATOM     37  C22 UNL     1       4.598  -2.014   0.739  1.00  0.00     0.000 C   
ENDBRANCH   1  32
TORSDOF 6
