REMARK SMILES Fc1nccc(Cn2cc([C@@H]([NH2+]Cc3ccc4c(c3)OCO4)C3CCCCC3)nn2)c1F
REMARK SMILES IDX 8 1 9 2 10 3 29 4 30 5 7 7 6 8 2 9 3 10 31 11 4 12 5 13 1 14
REMARK SMILES IDX 32 15 11 16 12 17 13 20 14 21 15 22 19 23 16 24 18 25 17 26
REMARK SMILES IDX 20 27 22 28 21 29 23 30 24 31 28 32 25 33 27 34 26 35
REMARK H PARENT 9 6 12 18 12 19
ROOT
ATOM     1   N2  UNL     1       3.127  -1.044  -0.664  1.00  0.00    -0.208 N   
ATOM     2   C6  UNL     1       2.108  -0.757  -1.531  1.00  0.00     0.046 A   
ATOM     3   C7  UNL     1       1.149  -0.171  -0.736  1.00  0.00     0.127 A   
ATOM     4   N4  UNL     1       1.610  -0.114   0.555  1.00  0.00    -0.132 NA  
ATOM     5   N5  UNL     1       2.817  -0.654   0.587  1.00  0.00    -0.076 NA  
ATOM     6   H5  UNL     1       2.158  -1.001  -2.584  1.00  0.00     0.083 HD  
ENDROOT
BRANCH   1   7
ATOM     7   C5  UNL     1       4.397  -1.692  -0.946  1.00  0.00     0.172 C   
BRANCH   7   8
ATOM     8   C4  UNL     1       4.329  -3.163  -0.653  1.00  0.00     0.014 A   
ATOM     9   C1  UNL     1       3.626  -5.382  -1.239  1.00  0.00     0.249 A   
ATOM     10  N1  UNL     1       4.120  -5.918  -0.102  1.00  0.00    -0.226 NA  
ATOM     11  C23 UNL     1       3.705  -4.033  -1.547  1.00  0.00     0.182 A   
ATOM     12  C2  UNL     1       4.726  -5.067   0.754  1.00  0.00     0.115 A   
ATOM     13  C3  UNL     1       4.850  -3.701   0.529  1.00  0.00     0.029 A   
ATOM     14  F1  UNL     1       3.006  -6.207  -2.095  1.00  0.00    -0.182 F   
ATOM     15  F2  UNL     1       3.170  -3.556  -2.681  1.00  0.00    -0.202 F   
ENDBRANCH   7   8
ENDBRANCH   1   7
BRANCH   3  16
ATOM     16  C8  UNL     1      -0.224   0.336  -1.054  1.00  0.00     0.117 C   
BRANCH  16  17
ATOM     17  N3  UNL     1      -1.085   0.316   0.180  1.00  0.00     0.249 N   
ATOM     18  H7  UNL     1      -1.885   0.951   0.108  1.00  0.00     0.199 HD  
ATOM     19  H8  UNL     1      -0.503   0.673   0.953  1.00  0.00     0.199 HD  
BRANCH  17  20
ATOM     20  C9  UNL     1      -1.573  -1.030   0.591  1.00  0.00     0.164 C   
BRANCH  20  21
ATOM     21  C10 UNL     1      -2.341  -0.937   1.879  1.00  0.00    -0.002 A   
ATOM     22  C11 UNL     1      -3.748  -0.795   1.869  1.00  0.00     0.012 A   
ATOM     23  C15 UNL     1      -1.652  -0.934   3.106  1.00  0.00     0.045 A   
ATOM     24  C12 UNL     1      -4.465  -0.664   3.063  1.00  0.00     0.037 A   
ATOM     25  C14 UNL     1      -2.389  -0.802   4.264  1.00  0.00     0.109 A   
ATOM     26  C13 UNL     1      -3.756  -0.671   4.244  1.00  0.00     0.108 A   
ATOM     27  O1  UNL     1      -1.884  -0.780   5.524  1.00  0.00    -0.316 OA  
ATOM     28  O2  UNL     1      -4.283  -0.552   5.490  1.00  0.00    -0.316 OA  
ATOM     29  C16 UNL     1      -3.094  -0.645   6.303  1.00  0.00     0.337 C   
ENDBRANCH  20  21
ENDBRANCH  17  20
ENDBRANCH  16  17
BRANCH  16  30
ATOM     30  C17 UNL     1      -0.191   1.761  -1.670  1.00  0.00     0.043 C   
ATOM     31  C18 UNL     1       0.251   2.861  -0.684  1.00  0.00     0.010 C   
ATOM     32  C22 UNL     1      -1.542   2.134  -2.313  1.00  0.00     0.010 C   
ATOM     33  C19 UNL     1       0.298   4.232  -1.355  1.00  0.00     0.001 C   
ATOM     34  C21 UNL     1      -1.488   3.507  -2.980  1.00  0.00     0.001 C   
ATOM     35  C20 UNL     1      -1.035   4.588  -2.005  1.00  0.00     0.000 C   
ENDBRANCH  16  30
ENDBRANCH   3  16
TORSDOF 7
