REMARK SMILES OC[C@H](c1ccc(O)c(F)c1)n1cc([C@@H]([NH2+]Cc2ccc3c(c2)OCO3)C2CCCC2)nn1
REMARK SMILES IDX 12 1 13 2 14 3 32 4 33 5 3 7 2 8 1 9 4 11 5 12 11 13 6 14
REMARK SMILES IDX 9 15 7 16 10 17 8 18 15 20 16 21 17 24 18 25 19 26 23 27
REMARK SMILES IDX 20 28 22 29 21 30 24 31 26 32 25 33 27 34 28 35 31 36 29 37
REMARK SMILES IDX 30 38
REMARK H PARENT 13 6 1 10 8 19 16 22 16 23
ROOT
ATOM     1   N1  UNL     1       1.324   1.615   1.433  1.00  0.00    -0.202 N   
ATOM     2   C9  UNL     1       1.689   1.026   0.252  1.00  0.00     0.046 A   
ATOM     3   C10 UNL     1       0.818   1.550  -0.673  1.00  0.00     0.127 A   
ATOM     4   N3  UNL     1      -0.051   2.401  -0.043  1.00  0.00    -0.132 NA  
ATOM     5   N4  UNL     1       0.271   2.442   1.238  1.00  0.00    -0.075 NA  
ATOM     6   H9  UNL     1       2.502   0.316   0.184  1.00  0.00     0.083 HD  
ENDROOT
BRANCH   1   7
ATOM     7   C2  UNL     1       1.892   1.469   2.772  1.00  0.00     0.155 C   
BRANCH   7   8
ATOM     8   C1  UNL     1       3.434   1.562   2.818  1.00  0.00     0.185 C   
BRANCH   8   9
ATOM     9   O1  UNL     1       4.097   0.529   2.090  1.00  0.00    -0.394 OA  
ATOM     10  H1  UNL     1       5.038   0.553   2.350  1.00  0.00     0.210 HD  
ENDBRANCH   8   9
ENDBRANCH   7   8
BRANCH   7  11
ATOM     11  C3  UNL     1       1.300   0.261   3.487  1.00  0.00    -0.020 A   
ATOM     12  C4  UNL     1       1.647  -1.061   3.146  1.00  0.00     0.009 A   
ATOM     13  C8  UNL     1       0.368   0.459   4.523  1.00  0.00     0.048 A   
ATOM     14  C5  UNL     1       1.091  -2.150   3.825  1.00  0.00     0.036 A   
ATOM     15  C7  UNL     1      -0.175  -0.631   5.196  1.00  0.00     0.153 A   
ATOM     16  C6  UNL     1       0.186  -1.927   4.852  1.00  0.00     0.107 A   
ATOM     17  F1  UNL     1      -1.057  -0.430   6.185  1.00  0.00    -0.204 F   
BRANCH  16  18
ATOM     18  O2  UNL     1      -0.346  -3.002   5.502  1.00  0.00    -0.358 OA  
ATOM     19  H7  UNL     1      -0.894  -2.658   6.233  1.00  0.00     0.218 HD  
ENDBRANCH  16  18
ENDBRANCH   7  11
ENDBRANCH   1   7
BRANCH   3  20
ATOM     20  C11 UNL     1       0.669   1.308  -2.139  1.00  0.00     0.117 C   
BRANCH  20  21
ATOM     21  N2  UNL     1      -0.800   1.292  -2.500  1.00  0.00     0.249 N   
ATOM     22  H11 UNL     1      -1.296   1.696  -1.688  1.00  0.00     0.199 HD  
ATOM     23  H12 UNL     1      -0.992   1.932  -3.275  1.00  0.00     0.199 HD  
BRANCH  21  24
ATOM     24  C12 UNL     1      -1.394  -0.035  -2.807  1.00  0.00     0.164 C   
BRANCH  24  25
ATOM     25  C13 UNL     1      -1.345  -1.012  -1.666  1.00  0.00    -0.002 A   
ATOM     26  C14 UNL     1      -0.435  -2.096  -1.693  1.00  0.00     0.012 A   
ATOM     27  C18 UNL     1      -2.200  -0.856  -0.561  1.00  0.00     0.045 A   
ATOM     28  C15 UNL     1      -0.377  -3.016  -0.641  1.00  0.00     0.037 A   
ATOM     29  C17 UNL     1      -2.127  -1.787   0.453  1.00  0.00     0.109 A   
ATOM     30  C16 UNL     1      -1.241  -2.836   0.415  1.00  0.00     0.108 A   
ATOM     31  O3  UNL     1      -2.900  -1.801   1.571  1.00  0.00    -0.316 OA  
ATOM     32  O4  UNL     1      -1.342  -3.641   1.504  1.00  0.00    -0.316 OA  
ATOM     33  C19 UNL     1      -2.430  -3.009   2.213  1.00  0.00     0.337 C   
ENDBRANCH  24  25
ENDBRANCH  21  24
ENDBRANCH  20  21
BRANCH  20  34
ATOM     34  C20 UNL     1       1.423   2.361  -2.976  1.00  0.00     0.043 C   
ATOM     35  C21 UNL     1       0.927   3.810  -2.842  1.00  0.00     0.010 C   
ATOM     36  C24 UNL     1       1.423   2.072  -4.491  1.00  0.00     0.010 C   
ATOM     37  C22 UNL     1       1.366   4.460  -4.144  1.00  0.00     0.001 C   
ATOM     38  C23 UNL     1       1.064   3.388  -5.177  1.00  0.00     0.001 C   
ENDBRANCH  20  34
ENDBRANCH   3  20
TORSDOF 10
