REMARK SMILES OC[C@@H](c1ccc(O)c(F)c1)n1cc([C@@H]([NH2+]Cc2ccc3c(c2)OCO3)C2CCCC2)nn1
REMARK SMILES IDX 12 1 13 2 14 3 32 4 33 5 3 7 2 8 1 9 4 11 5 12 11 13 6 14
REMARK SMILES IDX 9 15 7 16 10 17 8 18 15 20 16 21 17 24 18 25 19 26 23 27
REMARK SMILES IDX 20 28 22 29 21 30 24 31 26 32 25 33 27 34 28 35 31 36 29 37
REMARK SMILES IDX 30 38
REMARK H PARENT 13 6 1 10 8 19 16 22 16 23
ROOT
ATOM     1   N1  UNL     1       1.790  -2.508   0.274  1.00  0.00    -0.202 N   
ATOM     2   C9  UNL     1       2.165  -1.282   0.762  1.00  0.00     0.046 A   
ATOM     3   C10 UNL     1       1.010  -0.534   0.717  1.00  0.00     0.127 A   
ATOM     4   N3  UNL     1      -0.000  -1.299   0.194  1.00  0.00    -0.132 NA  
ATOM     5   N4  UNL     1       0.489  -2.495  -0.086  1.00  0.00    -0.075 NA  
ATOM     6   H9  UNL     1       3.172  -1.077   1.095  1.00  0.00     0.083 HD  
ENDROOT
BRANCH   1   7
ATOM     7   C2  UNL     1       2.627  -3.697   0.099  1.00  0.00     0.155 C   
BRANCH   7   8
ATOM     8   C1  UNL     1       2.014  -4.939   0.768  1.00  0.00     0.185 C   
BRANCH   8   9
ATOM     9   O1  UNL     1       2.124  -4.829   2.190  1.00  0.00    -0.394 OA  
ATOM     10  H1  UNL     1       1.714  -5.627   2.572  1.00  0.00     0.210 HD  
ENDBRANCH   8   9
ENDBRANCH   7   8
BRANCH   7  11
ATOM     11  C3  UNL     1       2.966  -3.890  -1.372  1.00  0.00    -0.020 A   
ATOM     12  C4  UNL     1       2.018  -4.376  -2.295  1.00  0.00     0.009 A   
ATOM     13  C8  UNL     1       4.251  -3.563  -1.842  1.00  0.00     0.048 A   
ATOM     14  C5  UNL     1       2.344  -4.530  -3.647  1.00  0.00     0.036 A   
ATOM     15  C7  UNL     1       4.564  -3.721  -3.189  1.00  0.00     0.153 A   
ATOM     16  C6  UNL     1       3.617  -4.200  -4.087  1.00  0.00     0.107 A   
ATOM     17  F1  UNL     1       5.790  -3.403  -3.627  1.00  0.00    -0.204 F   
BRANCH  16  18
ATOM     18  O2  UNL     1       3.912  -4.353  -5.410  1.00  0.00    -0.358 OA  
ATOM     19  H7  UNL     1       4.852  -4.120  -5.531  1.00  0.00     0.218 HD  
ENDBRANCH  16  18
ENDBRANCH   7  11
ENDBRANCH   1   7
BRANCH   3  20
ATOM     20  C11 UNL     1       0.739   0.887   1.091  1.00  0.00     0.117 C   
BRANCH  20  21
ATOM     21  N2  UNL     1      -0.304   1.469   0.169  1.00  0.00     0.249 N   
ATOM     22  H11 UNL     1      -1.096   0.808   0.159  1.00  0.00     0.199 HD  
ATOM     23  H12 UNL     1      -0.672   2.357   0.524  1.00  0.00     0.199 HD  
BRANCH  21  24
ATOM     24  C12 UNL     1       0.123   1.671  -1.246  1.00  0.00     0.164 C   
BRANCH  24  25
ATOM     25  C13 UNL     1      -0.959   2.374  -2.018  1.00  0.00    -0.002 A   
ATOM     26  C14 UNL     1      -0.876   3.767  -2.259  1.00  0.00     0.012 A   
ATOM     27  C18 UNL     1      -2.090   1.660  -2.456  1.00  0.00     0.045 A   
ATOM     28  C15 UNL     1      -1.901   4.441  -2.932  1.00  0.00     0.037 A   
ATOM     29  C17 UNL     1      -3.085   2.357  -3.109  1.00  0.00     0.109 A   
ATOM     30  C16 UNL     1      -2.994   3.708  -3.340  1.00  0.00     0.108 A   
ATOM     31  O3  UNL     1      -4.242   1.826  -3.585  1.00  0.00    -0.316 OA  
ATOM     32  O4  UNL     1      -4.080   4.197  -3.992  1.00  0.00    -0.316 OA  
ATOM     33  C19 UNL     1      -4.866   2.996  -4.160  1.00  0.00     0.337 C   
ENDBRANCH  24  25
ENDBRANCH  21  24
ENDBRANCH  20  21
BRANCH  20  34
ATOM     34  C20 UNL     1       0.228   1.012   2.542  1.00  0.00     0.043 C   
ATOM     35  C21 UNL     1      -0.036   2.450   2.998  1.00  0.00     0.010 C   
ATOM     36  C24 UNL     1       1.245   0.542   3.588  1.00  0.00     0.010 C   
ATOM     37  C22 UNL     1      -0.080   2.364   4.520  1.00  0.00     0.001 C   
ATOM     38  C23 UNL     1       0.759   1.148   4.900  1.00  0.00     0.001 C   
ENDBRANCH  20  34
ENDBRANCH   3  20
TORSDOF 10
