REMARK SMILES CC(C)C[C@H]([NH2+]Cc1ccc2c(c1)OCO2)c1cn(Cc2ccc(F)c(F)c2)nn1
REMARK SMILES IDX 17 1 18 2 19 3 29 4 30 5 5 7 4 8 2 9 1 10 3 11 6 12 7 15
REMARK SMILES IDX 8 16 9 17 13 18 10 19 12 20 11 21 14 22 16 23 15 24 20 25
REMARK SMILES IDX 21 26 22 27 28 28 23 29 26 30 24 31 27 32 25 33
REMARK H PARENT 18 6 6 13 6 14
ROOT
ATOM     1   C14 UNL     1       0.893  -0.531  -1.763  1.00  0.00     0.127 A   
ATOM     2   C15 UNL     1       0.569  -0.682  -3.095  1.00  0.00     0.046 A   
ATOM     3   N2  UNL     1       0.311  -2.021  -3.221  1.00  0.00    -0.208 N   
ATOM     4   N3  UNL     1       0.477  -2.655  -2.045  1.00  0.00    -0.076 NA  
ATOM     5   N4  UNL     1       0.844  -1.756  -1.147  1.00  0.00    -0.132 NA  
ATOM     6   H20 UNL     1       0.484   0.005  -3.925  1.00  0.00     0.083 HD  
ENDROOT
BRANCH   1   7
ATOM     7   C5  UNL     1       1.248   0.684  -0.962  1.00  0.00     0.114 C   
BRANCH   7   8
ATOM     8   C4  UNL     1       2.737   1.041  -1.150  1.00  0.00     0.064 C   
BRANCH   8   9
ATOM     9   C2  UNL     1       3.227   2.328  -0.454  1.00  0.00    -0.012 C   
ATOM     10  C1  UNL     1       4.715   2.536  -0.752  1.00  0.00     0.007 C   
ATOM     11  C3  UNL     1       2.438   3.564  -0.884  1.00  0.00     0.007 C   
ENDBRANCH   8   9
ENDBRANCH   7   8
BRANCH   7  12
ATOM     12  N1  UNL     1       0.978   0.442   0.498  1.00  0.00     0.249 N   
ATOM     13  H11 UNL     1       1.468   1.108   1.098  1.00  0.00     0.199 HD  
ATOM     14  H12 UNL     1       1.362  -0.486   0.723  1.00  0.00     0.199 HD  
BRANCH  12  15
ATOM     15  C6  UNL     1      -0.459   0.432   0.892  1.00  0.00     0.164 C   
BRANCH  15  16
ATOM     16  C7  UNL     1      -0.599   0.017   2.329  1.00  0.00    -0.002 A   
ATOM     17  C8  UNL     1      -0.832  -1.340   2.657  1.00  0.00     0.012 A   
ATOM     18  C12 UNL     1      -0.435   0.959   3.358  1.00  0.00     0.045 A   
ATOM     19  C9  UNL     1      -0.915  -1.754   3.991  1.00  0.00     0.037 A   
ATOM     20  C11 UNL     1      -0.517   0.517   4.663  1.00  0.00     0.109 A   
ATOM     21  C10 UNL     1      -0.752  -0.800   4.971  1.00  0.00     0.108 A   
ATOM     22  O1  UNL     1      -0.378   1.293   5.771  1.00  0.00    -0.316 OA  
ATOM     23  O2  UNL     1      -0.798  -1.019   6.311  1.00  0.00    -0.316 OA  
ATOM     24  C13 UNL     1      -0.579   0.314   6.816  1.00  0.00     0.337 C   
ENDBRANCH  15  16
ENDBRANCH  12  15
ENDBRANCH   7  12
ENDBRANCH   1   7
BRANCH   3  25
ATOM     25  C16 UNL     1      -0.102  -2.754  -4.407  1.00  0.00     0.169 C   
BRANCH  25  26
ATOM     26  C17 UNL     1      -1.528  -2.427  -4.777  1.00  0.00    -0.025 A   
ATOM     27  C18 UNL     1      -1.816  -1.706  -5.950  1.00  0.00     0.008 A   
ATOM     28  C22 UNL     1      -2.590  -2.833  -3.949  1.00  0.00     0.047 A   
ATOM     29  C19 UNL     1      -3.137  -1.391  -6.280  1.00  0.00     0.043 A   
ATOM     30  C21 UNL     1      -3.901  -2.510  -4.285  1.00  0.00     0.159 A   
ATOM     31  C20 UNL     1      -4.172  -1.793  -5.443  1.00  0.00     0.158 A   
ATOM     32  F2  UNL     1      -4.897  -2.884  -3.470  1.00  0.00    -0.204 F   
ATOM     33  F1  UNL     1      -5.434  -1.476  -5.757  1.00  0.00    -0.204 F   
ENDBRANCH  25  26
ENDBRANCH   3  25
TORSDOF 8
