REMARK SMILES CC(C)C[C@H]([NH2+]Cc1ccc2c(c1)OCO2)c1cn(Cc2ccc3[nH]cnc3c2)nn1
REMARK SMILES IDX 17 1 18 2 19 3 30 4 31 5 5 7 4 8 2 9 1 10 3 11 6 12 7 15
REMARK SMILES IDX 8 16 9 17 13 18 10 19 12 20 11 21 14 22 16 23 15 24 20 25
REMARK SMILES IDX 21 26 22 27 29 28 23 29 28 30 24 31 27 32 25 33 26 34
REMARK H PARENT 18 6 6 13 6 14 25 35
ROOT
ATOM     1   C14 UNL     1       0.511  -1.310  -0.433  1.00  0.00     0.127 A   
ATOM     2   C15 UNL     1      -0.262  -2.220   0.253  1.00  0.00     0.046 A   
ATOM     3   N2  UNL     1       0.231  -2.175   1.529  1.00  0.00    -0.208 N   
ATOM     4   N5  UNL     1       1.257  -1.306   1.617  1.00  0.00    -0.076 NA  
ATOM     5   N6  UNL     1       1.437  -0.769   0.421  1.00  0.00    -0.132 NA  
ATOM     6   H20 UNL     1      -1.098  -2.847  -0.024  1.00  0.00     0.083 HD  
ENDROOT
BRANCH   1   7
ATOM     7   C5  UNL     1       0.434  -0.811  -1.837  1.00  0.00     0.114 C   
BRANCH   7   8
ATOM     8   C4  UNL     1       1.511  -1.429  -2.748  1.00  0.00     0.064 C   
BRANCH   8   9
ATOM     9   C2  UNL     1       1.415  -2.958  -2.937  1.00  0.00    -0.012 C   
ATOM     10  C1  UNL     1       2.580  -3.443  -3.806  1.00  0.00     0.007 C   
ATOM     11  C3  UNL     1       0.090  -3.386  -3.568  1.00  0.00     0.007 C   
ENDBRANCH   8   9
ENDBRANCH   7   8
BRANCH   7  12
ATOM     12  N1  UNL     1       0.648   0.684  -1.852  1.00  0.00     0.249 N   
ATOM     13  H11 UNL     1       1.487   0.868  -1.280  1.00  0.00     0.199 HD  
ATOM     14  H12 UNL     1       0.861   1.022  -2.795  1.00  0.00     0.199 HD  
BRANCH  12  15
ATOM     15  C6  UNL     1      -0.465   1.493  -1.280  1.00  0.00     0.164 C   
BRANCH  15  16
ATOM     16  C7  UNL     1      -0.128   2.956  -1.329  1.00  0.00    -0.002 A   
ATOM     17  C8  UNL     1      -0.552   3.756  -2.417  1.00  0.00     0.012 A   
ATOM     18  C12 UNL     1       0.660   3.528  -0.314  1.00  0.00     0.045 A   
ATOM     19  C9  UNL     1      -0.206   5.109  -2.490  1.00  0.00     0.037 A   
ATOM     20  C11 UNL     1       0.983   4.865  -0.417  1.00  0.00     0.109 A   
ATOM     21  C10 UNL     1       0.564   5.633  -1.475  1.00  0.00     0.108 A   
ATOM     22  O1  UNL     1       1.730   5.569   0.473  1.00  0.00    -0.316 OA  
ATOM     23  O2  UNL     1       0.992   6.919  -1.383  1.00  0.00    -0.316 OA  
ATOM     24  C13 UNL     1       1.713   6.881  -0.133  1.00  0.00     0.337 C   
ENDBRANCH  15  16
ENDBRANCH  12  15
ENDBRANCH   7  12
ENDBRANCH   1   7
BRANCH   3  25
ATOM     25  C16 UNL     1      -0.242  -2.892   2.700  1.00  0.00     0.169 C   
BRANCH  25  26
ATOM     26  C17 UNL     1      -1.363  -2.136   3.369  1.00  0.00    -0.026 A   
ATOM     27  C18 UNL     1      -1.091  -1.250   4.426  1.00  0.00     0.007 A   
ATOM     28  C23 UNL     1      -2.686  -2.284   2.908  1.00  0.00     0.035 A   
ATOM     29  C19 UNL     1      -2.104  -0.513   5.055  1.00  0.00     0.026 A   
ATOM     30  C22 UNL     1      -3.708  -1.541   3.514  1.00  0.00     0.086 A   
ATOM     31  C20 UNL     1      -3.399  -0.688   4.567  1.00  0.00     0.057 A   
ATOM     32  N4  UNL     1      -5.048  -1.503   3.225  1.00  0.00    -0.239 NA  
ATOM     33  N3  UNL     1      -4.609  -0.151   4.930  1.00  0.00    -0.304 N   
ATOM     34  C21 UNL     1      -5.564  -0.668   4.099  1.00  0.00     0.186 A   
ATOM     35  H25 UNL     1      -4.769   0.504   5.682  1.00  0.00     0.154 HD  
ENDBRANCH  25  26
ENDBRANCH   3  25
TORSDOF 8
