REMARK SMILES CC(C)(C)c1nocc1Cn1cc([C@@H]([NH2+]Cc2ccc3c(c2)OCO3)C2CCCC2)nn1
REMARK SMILES IDX 11 1 12 2 13 3 31 4 32 5 10 7 9 8 5 9 6 10 7 11 8 12 2 13
REMARK SMILES IDX 1 14 3 15 4 16 14 17 15 18 16 21 17 22 18 23 22 24 19 25
REMARK SMILES IDX 21 26 20 27 23 28 25 29 24 30 26 31 27 32 30 33 28 34 29 35
REMARK H PARENT 12 6 15 19 15 20
ROOT
ATOM     1   N2  UNL     1      -1.185  -1.147   0.636  1.00  0.00    -0.208 N   
ATOM     2   C9  UNL     1      -0.359  -0.070   0.811  1.00  0.00     0.046 A   
ATOM     3   C10 UNL     1      -1.222   0.978   1.040  1.00  0.00     0.127 A   
ATOM     4   N4  UNL     1      -2.513   0.518   0.995  1.00  0.00    -0.132 NA  
ATOM     5   N5  UNL     1      -2.478  -0.783   0.765  1.00  0.00    -0.076 NA  
ATOM     6   H13 UNL     1       0.718  -0.143   0.745  1.00  0.00     0.083 HD  
ENDROOT
BRANCH   1   7
ATOM     7   C8  UNL     1      -0.827  -2.539   0.402  1.00  0.00     0.173 C   
BRANCH   7   8
ATOM     8   C7  UNL     1      -0.951  -2.896  -1.034  1.00  0.00     0.021 A   
ATOM     9   C5  UNL     1       0.036  -3.315  -1.987  1.00  0.00     0.081 A   
ATOM     10  N1  UNL     1      -0.542  -3.566  -3.172  1.00  0.00    -0.133 NA  
ATOM     11  O1  UNL     1      -1.883  -3.316  -3.022  1.00  0.00    -0.221 OA  
ATOM     12  C6  UNL     1      -2.126  -2.929  -1.755  1.00  0.00     0.171 A   
BRANCH   9  13
ATOM     13  C2  UNL     1       1.542  -3.517  -1.838  1.00  0.00     0.007 C   
ATOM     14  C1  UNL     1       2.226  -2.213  -1.384  1.00  0.00     0.017 C   
ATOM     15  C3  UNL     1       1.834  -4.641  -0.825  1.00  0.00     0.017 C   
ATOM     16  C4  UNL     1       2.205  -3.927  -3.178  1.00  0.00     0.017 C   
ENDBRANCH   9  13
ENDBRANCH   7   8
ENDBRANCH   1   7
BRANCH   3  17
ATOM     17  C11 UNL     1      -0.985   2.441   1.242  1.00  0.00     0.117 C   
BRANCH  17  18
ATOM     18  N3  UNL     1      -2.039   3.203   0.461  1.00  0.00     0.249 N   
ATOM     19  H15 UNL     1      -2.543   3.860   1.065  1.00  0.00     0.199 HD  
ATOM     20  H16 UNL     1      -2.753   2.506   0.193  1.00  0.00     0.199 HD  
BRANCH  18  21
ATOM     21  C12 UNL     1      -1.578   3.903  -0.768  1.00  0.00     0.164 C   
BRANCH  21  22
ATOM     22  C13 UNL     1      -0.917   3.003  -1.776  1.00  0.00    -0.002 A   
ATOM     23  C14 UNL     1       0.445   3.196  -2.115  1.00  0.00     0.012 A   
ATOM     24  C18 UNL     1      -1.637   1.961  -2.387  1.00  0.00     0.045 A   
ATOM     25  C15 UNL     1       1.083   2.361  -3.038  1.00  0.00     0.037 A   
ATOM     26  C17 UNL     1      -0.977   1.157  -3.293  1.00  0.00     0.109 A   
ATOM     27  C16 UNL     1       0.344   1.351  -3.610  1.00  0.00     0.108 A   
ATOM     28  O2  UNL     1      -1.525   0.115  -3.969  1.00  0.00    -0.316 OA  
ATOM     29  O3  UNL     1       0.795   0.457  -4.527  1.00  0.00    -0.316 OA  
ATOM     30  C19 UNL     1      -0.410  -0.294  -4.795  1.00  0.00     0.337 C   
ENDBRANCH  21  22
ENDBRANCH  18  21
ENDBRANCH  17  18
BRANCH  17  31
ATOM     31  C20 UNL     1      -1.071   2.850   2.723  1.00  0.00     0.043 C   
ATOM     32  C21 UNL     1      -0.015   2.172   3.604  1.00  0.00     0.010 C   
ATOM     33  C24 UNL     1      -0.775   4.332   2.976  1.00  0.00     0.010 C   
ATOM     34  C22 UNL     1       0.054   3.033   4.862  1.00  0.00     0.001 C   
ATOM     35  C23 UNL     1      -0.496   4.403   4.473  1.00  0.00     0.001 C   
ENDBRANCH  17  31
ENDBRANCH   3  17
TORSDOF 8
