REMARK SMILES CC(C)C[C@H]([NH2+]Cc1ccc2c(c1)OCO2)c1cn(-c2ccn(C)c(=O)c2)nn1
REMARK SMILES IDX 5 1 4 2 2 3 1 4 3 5 6 6 7 9 8 10 9 11 13 12 10 13 12 14
REMARK SMILES IDX 11 15 14 16 16 17 15 18 17 19 18 20 29 21 19 22 28 23 20 24
REMARK SMILES IDX 21 25 27 26 22 27 25 28 23 29 26 30 24 31
REMARK H PARENT 6 7 6 8
ROOT
ATOM     1   C5  UNL     1      -1.550   1.013  -0.875  1.00  0.00     0.114 C   
ENDROOT
BRANCH   1   2
ATOM     2   C4  UNL     1      -2.379   0.219  -1.903  1.00  0.00     0.064 C   
BRANCH   2   3
ATOM     3   C2  UNL     1      -3.297  -0.873  -1.312  1.00  0.00    -0.012 C   
ATOM     4   C1  UNL     1      -4.336  -0.301  -0.346  1.00  0.00     0.007 C   
ATOM     5   C3  UNL     1      -4.005  -1.620  -2.446  1.00  0.00     0.007 C   
ENDBRANCH   2   3
ENDBRANCH   1   2
BRANCH   1   6
ATOM     6   N1  UNL     1      -0.824   2.093  -1.644  1.00  0.00     0.249 N   
ATOM     7   H11 UNL     1      -0.049   1.636  -2.148  1.00  0.00     0.199 HD  
ATOM     8   H12 UNL     1      -1.426   2.509  -2.363  1.00  0.00     0.199 HD  
BRANCH   6   9
ATOM     9   C6  UNL     1      -0.236   3.185  -0.818  1.00  0.00     0.164 C   
BRANCH   9  10
ATOM     10  C7  UNL     1       0.491   4.168  -1.691  1.00  0.00    -0.002 A   
ATOM     11  C8  UNL     1      -0.159   5.336  -2.155  1.00  0.00     0.012 A   
ATOM     12  C12 UNL     1       1.811   3.902  -2.096  1.00  0.00     0.045 A   
ATOM     13  C9  UNL     1       0.497   6.233  -3.004  1.00  0.00     0.037 A   
ATOM     14  C11 UNL     1       2.428   4.806  -2.935  1.00  0.00     0.109 A   
ATOM     15  C10 UNL     1       1.790   5.939  -3.376  1.00  0.00     0.108 A   
ATOM     16  O1  UNL     1       3.692   4.698  -3.422  1.00  0.00    -0.316 OA  
ATOM     17  O2  UNL     1       2.574   6.689  -4.194  1.00  0.00    -0.316 OA  
ATOM     18  C13 UNL     1       3.790   5.910  -4.203  1.00  0.00     0.337 C   
ENDBRANCH   9  10
ENDBRANCH   6   9
ENDBRANCH   1   6
BRANCH   1  19
ATOM     19  C14 UNL     1      -0.565   0.157  -0.147  1.00  0.00     0.127 A   
ATOM     20  C15 UNL     1      -0.636  -0.485   1.066  1.00  0.00     0.135 A   
ATOM     21  N5  UNL     1       0.669  -0.050  -0.682  1.00  0.00    -0.131 NA  
ATOM     22  N2  UNL     1       0.593  -1.127   1.245  1.00  0.00    -0.180 N   
ATOM     23  N4  UNL     1       1.360  -0.801   0.156  1.00  0.00    -0.071 NA  
BRANCH  22  24
ATOM     24  C16 UNL     1       0.989  -1.941   2.332  1.00  0.00     0.064 A   
ATOM     25  C17 UNL     1       2.328  -2.523   2.336  1.00  0.00     0.042 A   
ATOM     26  C21 UNL     1       0.188  -2.218   3.381  1.00  0.00     0.095 A   
ATOM     27  C18 UNL     1       2.746  -3.298   3.344  1.00  0.00     0.080 A   
ATOM     28  C20 UNL     1       0.637  -3.077   4.510  1.00  0.00     0.244 A   
ATOM     29  N3  UNL     1       1.929  -3.574   4.421  1.00  0.00    -0.278 N   
ATOM     30  O3  UNL     1      -0.149  -3.285   5.429  1.00  0.00    -0.272 OA  
ATOM     31  C19 UNL     1       2.439  -4.431   5.481  1.00  0.00     0.139 C   
ENDBRANCH  22  24
ENDBRANCH   1  19
TORSDOF 7
