REMARK SMILES CC(C)C[C@H]([NH2+]Cc1ccc2c(c1)OCO2)c1cn(Cc2ccccc2F)nn1
REMARK SMILES IDX 17 1 18 2 19 3 28 4 29 5 5 7 4 8 2 9 1 10 3 11 6 12 7 15
REMARK SMILES IDX 8 16 9 17 13 18 10 19 12 20 11 21 14 22 16 23 15 24 20 25
REMARK SMILES IDX 21 26 22 27 26 28 23 29 25 30 24 31 27 32
REMARK H PARENT 18 6 6 13 6 14
ROOT
ATOM     1   C14 UNL     1       1.165  -1.319   0.212  1.00  0.00     0.127 A   
ATOM     2   C15 UNL     1       0.092  -2.110   0.557  1.00  0.00     0.046 A   
ATOM     3   N2  UNL     1       0.523  -2.786   1.665  1.00  0.00    -0.208 N   
ATOM     4   N3  UNL     1       1.791  -2.446   1.973  1.00  0.00    -0.076 NA  
ATOM     5   N4  UNL     1       2.197  -1.555   1.085  1.00  0.00    -0.132 NA  
ATOM     6   H20 UNL     1      -0.904  -2.236   0.153  1.00  0.00     0.083 HD  
ENDROOT
BRANCH   1   7
ATOM     7   C5  UNL     1       1.335  -0.303  -0.872  1.00  0.00     0.114 C   
BRANCH   7   8
ATOM     8   C4  UNL     1       1.823  -0.974  -2.173  1.00  0.00     0.064 C   
BRANCH   8   9
ATOM     9   C2  UNL     1       1.988  -0.055  -3.403  1.00  0.00    -0.012 C   
ATOM     10  C1  UNL     1       0.711   0.713  -3.741  1.00  0.00     0.007 C   
ATOM     11  C3  UNL     1       2.422  -0.890  -4.611  1.00  0.00     0.007 C   
ENDBRANCH   8   9
ENDBRANCH   7   8
BRANCH   7  12
ATOM     12  N1  UNL     1       2.340   0.742  -0.448  1.00  0.00     0.249 N   
ATOM     13  H11 UNL     1       2.658   1.295  -1.247  1.00  0.00     0.199 HD  
ATOM     14  H12 UNL     1       3.154   0.223  -0.089  1.00  0.00     0.199 HD  
BRANCH  12  15
ATOM     15  C6  UNL     1       1.900   1.678   0.631  1.00  0.00     0.164 C   
BRANCH  15  16
ATOM     16  C7  UNL     1       0.890   2.681   0.144  1.00  0.00    -0.002 A   
ATOM     17  C8  UNL     1       1.301   3.781  -0.646  1.00  0.00     0.012 A   
ATOM     18  C12 UNL     1      -0.474   2.511   0.439  1.00  0.00     0.045 A   
ATOM     19  C9  UNL     1       0.368   4.700  -1.138  1.00  0.00     0.037 A   
ATOM     20  C11 UNL     1      -1.369   3.432  -0.068  1.00  0.00     0.109 A   
ATOM     21  C10 UNL     1      -0.960   4.496  -0.832  1.00  0.00     0.108 A   
ATOM     22  O1  UNL     1      -2.715   3.405   0.108  1.00  0.00    -0.316 OA  
ATOM     23  O2  UNL     1      -1.997   5.279  -1.227  1.00  0.00    -0.316 OA  
ATOM     24  C13 UNL     1      -3.110   4.592  -0.619  1.00  0.00     0.337 C   
ENDBRANCH  15  16
ENDBRANCH  12  15
ENDBRANCH   7  12
ENDBRANCH   1   7
BRANCH   3  25
ATOM     25  C16 UNL     1      -0.204  -3.753   2.470  1.00  0.00     0.172 C   
BRANCH  25  26
ATOM     26  C17 UNL     1      -1.068  -3.061   3.487  1.00  0.00     0.007 A   
ATOM     27  C18 UNL     1      -0.589  -2.780   4.775  1.00  0.00     0.008 A   
ATOM     28  C22 UNL     1      -2.362  -2.651   3.151  1.00  0.00     0.128 A   
ATOM     29  C19 UNL     1      -1.401  -2.115   5.699  1.00  0.00     0.001 A   
ATOM     30  C21 UNL     1      -3.176  -1.990   4.067  1.00  0.00     0.039 A   
ATOM     31  C20 UNL     1      -2.693  -1.722   5.346  1.00  0.00     0.003 A   
ATOM     32  F1  UNL     1      -2.829  -2.884   1.916  1.00  0.00    -0.207 F   
ENDBRANCH  25  26
ENDBRANCH   3  25
TORSDOF 8
