REMARK SMILES CCn1ccnc1CCn1cc([C@@H]([NH2+]Cc2ccc3c(c2)OCO3)C2CCCCC2)nn1
REMARK SMILES IDX 10 1 11 2 12 3 31 4 32 5 9 7 8 8 7 9 3 10 4 11 5 12 6 13
REMARK SMILES IDX 2 14 1 15 13 16 14 17 15 20 16 21 17 22 21 23 18 24 20 25
REMARK SMILES IDX 19 26 22 27 24 28 23 29 25 30 26 31 30 32 27 33 29 34 28 35
REMARK H PARENT 11 6 14 18 14 19
ROOT
ATOM     1   N3  UNL     1       2.967   0.230   0.602  1.00  0.00    -0.212 N   
ATOM     2   C8  UNL     1       1.857  -0.552   0.466  1.00  0.00     0.045 A   
ATOM     3   C9  UNL     1       1.896  -0.946  -0.852  1.00  0.00     0.127 A   
ATOM     4   N5  UNL     1       3.029  -0.450  -1.443  1.00  0.00    -0.132 NA  
ATOM     5   N6  UNL     1       3.689   0.251  -0.534  1.00  0.00    -0.076 NA  
ATOM     6   H12 UNL     1       1.138  -0.682   1.262  1.00  0.00     0.083 HD  
ENDROOT
BRANCH   1   7
ATOM     7   C7  UNL     1       3.371   1.011   1.751  1.00  0.00     0.142 C   
BRANCH   7   8
ATOM     8   C6  UNL     1       3.405   2.515   1.484  1.00  0.00     0.094 C   
BRANCH   8   9
ATOM     9   C5  UNL     1       2.045   3.119   1.285  1.00  0.00     0.102 A   
ATOM     10  N1  UNL     1       1.800   4.473   1.380  1.00  0.00    -0.294 N   
ATOM     11  C3  UNL     1       0.464   4.672   1.167  1.00  0.00     0.096 A   
ATOM     12  C4  UNL     1      -0.056   3.423   0.939  1.00  0.00     0.128 A   
ATOM     13  N2  UNL     1       0.929   2.470   0.994  1.00  0.00    -0.244 NA  
BRANCH  10  14
ATOM     14  C2  UNL     1       2.758   5.530   1.648  1.00  0.00     0.108 C   
ATOM     15  C1  UNL     1       2.855   5.858   3.128  1.00  0.00     0.025 C   
ENDBRANCH  10  14
ENDBRANCH   8   9
ENDBRANCH   7   8
ENDBRANCH   1   7
BRANCH   3  16
ATOM     16  C10 UNL     1       0.875  -1.646  -1.686  1.00  0.00     0.117 C   
BRANCH  16  17
ATOM     17  N4  UNL     1       0.529  -0.732  -2.847  1.00  0.00     0.249 N   
ATOM     18  H14 UNL     1      -0.010  -1.223  -3.560  1.00  0.00     0.199 HD  
ATOM     19  H15 UNL     1       1.427  -0.460  -3.271  1.00  0.00     0.199 HD  
BRANCH  17  20
ATOM     20  C11 UNL     1      -0.200   0.525  -2.490  1.00  0.00     0.164 C   
BRANCH  20  21
ATOM     21  C12 UNL     1      -1.600   0.258  -2.010  1.00  0.00    -0.002 A   
ATOM     22  C13 UNL     1      -1.912   0.358  -0.633  1.00  0.00     0.012 A   
ATOM     23  C17 UNL     1      -2.599  -0.139  -2.917  1.00  0.00     0.045 A   
ATOM     24  C14 UNL     1      -3.197   0.069  -0.162  1.00  0.00     0.037 A   
ATOM     25  C16 UNL     1      -3.854  -0.420  -2.419  1.00  0.00     0.109 A   
ATOM     26  C15 UNL     1      -4.146  -0.318  -1.082  1.00  0.00     0.108 A   
ATOM     27  O1  UNL     1      -4.924  -0.819  -3.156  1.00  0.00    -0.316 OA  
ATOM     28  O2  UNL     1      -5.437  -0.638  -0.807  1.00  0.00    -0.316 OA  
ATOM     29  C18 UNL     1      -5.935  -0.938  -2.129  1.00  0.00     0.337 C   
ENDBRANCH  20  21
ENDBRANCH  17  20
ENDBRANCH  16  17
BRANCH  16  30
ATOM     30  C19 UNL     1       1.378  -3.014  -2.237  1.00  0.00     0.043 C   
ATOM     31  C20 UNL     1       1.832  -3.969  -1.108  1.00  0.00     0.010 C   
ATOM     32  C24 UNL     1       0.334  -3.765  -3.095  1.00  0.00     0.010 C   
ATOM     33  C21 UNL     1       0.667  -4.475  -0.259  1.00  0.00     0.001 C   
ATOM     34  C23 UNL     1      -0.854  -4.268  -2.276  1.00  0.00     0.001 C   
ATOM     35  C22 UNL     1      -0.402  -5.149  -1.114  1.00  0.00     0.000 C   
ENDBRANCH  16  30
ENDBRANCH   3  16
TORSDOF 9
