REMARK SMILES CC(C)C[C@H]([NH2+]Cc1ccc2c(c1)OCO2)c1cn(Cc2c(F)cccc2N([O-])[O-])nn1
REMARK SMILES IDX 17 1 18 2 19 3 31 4 32 5 5 7 4 8 2 9 1 10 3 11 6 12 7 15
REMARK SMILES IDX 8 16 9 17 13 18 10 19 12 20 11 21 14 22 16 23 15 24 20 25
REMARK SMILES IDX 21 26 22 27 27 28 24 29 26 30 25 31 23 32 28 33 29 34 30 35
REMARK H PARENT 18 6 6 13 6 14
ROOT
ATOM     1   C14 UNL     1       0.738  -0.626   0.262  1.00  0.00     0.127 A   
ATOM     2   C15 UNL     1       1.022  -0.087  -0.973  1.00  0.00     0.046 A   
ATOM     3   N2  UNL     1       0.844  -1.132  -1.838  1.00  0.00    -0.208 N   
ATOM     4   N4  UNL     1       0.523  -2.256  -1.170  1.00  0.00    -0.076 NA  
ATOM     5   N5  UNL     1       0.447  -1.957   0.116  1.00  0.00    -0.132 NA  
ATOM     6   H20 UNL     1       1.265   0.912  -1.310  1.00  0.00     0.083 HD  
ENDROOT
BRANCH   1   7
ATOM     7   C5  UNL     1       0.617   0.009   1.609  1.00  0.00     0.114 C   
BRANCH   7   8
ATOM     8   C4  UNL     1       1.872  -0.266   2.462  1.00  0.00     0.064 C   
BRANCH   8   9
ATOM     9   C2  UNL     1       1.930   0.440   3.835  1.00  0.00    -0.012 C   
ATOM     10  C1  UNL     1       3.231   0.065   4.551  1.00  0.00     0.007 C   
ATOM     11  C3  UNL     1       1.824   1.961   3.717  1.00  0.00     0.007 C   
ENDBRANCH   8   9
ENDBRANCH   7   8
BRANCH   7  12
ATOM     12  N1  UNL     1      -0.594  -0.545   2.321  1.00  0.00     0.249 N   
ATOM     13  H11 UNL     1      -0.566  -0.330   3.321  1.00  0.00     0.199 HD  
ATOM     14  H12 UNL     1      -0.538  -1.569   2.225  1.00  0.00     0.199 HD  
BRANCH  12  15
ATOM     15  C6  UNL     1      -1.920  -0.117   1.779  1.00  0.00     0.164 C   
BRANCH  15  16
ATOM     16  C7  UNL     1      -2.233   1.317   2.109  1.00  0.00    -0.002 A   
ATOM     17  C8  UNL     1      -2.599   1.681   3.428  1.00  0.00     0.012 A   
ATOM     18  C12 UNL     1      -2.127   2.311   1.120  1.00  0.00     0.045 A   
ATOM     19  C9  UNL     1      -2.845   3.017   3.763  1.00  0.00     0.037 A   
ATOM     20  C11 UNL     1      -2.374   3.619   1.485  1.00  0.00     0.109 A   
ATOM     21  C10 UNL     1      -2.721   3.962   2.769  1.00  0.00     0.108 A   
ATOM     22  O1  UNL     1      -2.300   4.697   0.661  1.00  0.00    -0.316 OA  
ATOM     23  O2  UNL     1      -2.913   5.299   2.914  1.00  0.00    -0.316 OA  
ATOM     24  C13 UNL     1      -2.679   5.760   1.565  1.00  0.00     0.337 C   
ENDBRANCH  15  16
ENDBRANCH  12  15
ENDBRANCH   7  12
ENDBRANCH   1   7
BRANCH   3  25
ATOM     25  C16 UNL     1       0.845  -1.096  -3.295  1.00  0.00     0.174 C   
BRANCH  25  26
ATOM     26  C17 UNL     1      -0.376  -1.749  -3.903  1.00  0.00     0.036 A   
ATOM     27  C18 UNL     1      -0.183  -2.790  -4.818  1.00  0.00     0.130 A   
ATOM     28  C22 UNL     1      -1.712  -1.405  -3.612  1.00  0.00     0.125 A   
ATOM     29  C19 UNL     1      -1.250  -3.470  -5.405  1.00  0.00     0.040 A   
ATOM     30  C21 UNL     1      -2.799  -2.085  -4.185  1.00  0.00     0.032 A   
ATOM     31  C20 UNL     1      -2.561  -3.121  -5.086  1.00  0.00     0.005 A   
ATOM     32  F1  UNL     1       1.062  -3.170  -5.137  1.00  0.00    -0.207 F   
BRANCH  28  33
ATOM     33  N3  UNL     1      -2.022  -0.328  -2.681  1.00  0.00     0.092 N   
ATOM     34  O3  UNL     1      -2.818  -0.571  -1.763  1.00  0.00    -0.138 OA  
ATOM     35  O4  UNL     1      -1.433   0.750  -2.840  1.00  0.00    -0.138 OA  
ENDBRANCH  28  33
ENDBRANCH  25  26
ENDBRANCH   3  25
TORSDOF 9
