REMARK SMILES Cc1cc([C@@H](CO)n2cc([C@@H]([NH2+]Cc3ccc4c(c3)OCO4)C(C)(C)C)nn2)n[nH]1
REMARK SMILES IDX 8 1 9 2 10 3 27 4 28 5 5 7 4 8 2 9 3 10 30 11 29 12 1 13
REMARK SMILES IDX 6 15 7 16 11 18 12 19 13 22 14 23 15 24 19 25 16 26 18 27
REMARK SMILES IDX 17 28 20 29 22 30 21 31 23 32 24 33 25 34 26 35
REMARK H PARENT 9 6 30 14 7 17 12 20 12 21
ROOT
ATOM     1   N1  UNL     1       1.099  -1.023  -2.432  1.00  0.00    -0.201 N   
ATOM     2   C7  UNL     1       0.656  -2.009  -1.589  1.00  0.00     0.046 A   
ATOM     3   C8  UNL     1       0.216  -1.330  -0.476  1.00  0.00     0.127 A   
ATOM     4   N3  UNL     1       0.435   0.012  -0.651  1.00  0.00    -0.132 NA  
ATOM     5   N4  UNL     1       0.969   0.190  -1.847  1.00  0.00    -0.075 NA  
ATOM     6   H9  UNL     1       0.682  -3.054  -1.865  1.00  0.00     0.083 HD  
ENDROOT
BRANCH   1   7
ATOM     7   C5  UNL     1       1.624  -1.184  -3.784  1.00  0.00     0.175 C   
BRANCH   7   8
ATOM     8   C4  UNL     1       0.520  -0.956  -4.775  1.00  0.00     0.085 A   
ATOM     9   C2  UNL     1      -1.091  -0.106  -6.041  1.00  0.00     0.024 A   
ATOM     10  C3  UNL     1      -0.191   0.236  -5.059  1.00  0.00     0.048 A   
ATOM     11  N6  UNL     1      -0.875  -1.429  -6.301  1.00  0.00    -0.243 N   
ATOM     12  N5  UNL     1       0.084  -1.972  -5.534  1.00  0.00    -0.187 NA  
ATOM     13  C1  UNL     1      -2.114   0.685  -6.761  1.00  0.00     0.063 C   
ATOM     14  H29 UNL     1      -1.345  -2.023  -6.979  1.00  0.00     0.175 HD  
ENDBRANCH   7   8
BRANCH   7  15
ATOM     15  C6  UNL     1       2.864  -0.323  -4.059  1.00  0.00     0.187 C   
BRANCH  15  16
ATOM     16  O1  UNL     1       3.986  -0.804  -3.308  1.00  0.00    -0.394 OA  
ATOM     17  H8  UNL     1       4.781  -0.382  -3.685  1.00  0.00     0.210 HD  
ENDBRANCH  15  16
ENDBRANCH   7  15
ENDBRANCH   1   7
BRANCH   3  18
ATOM     18  C9  UNL     1      -0.351  -1.824   0.820  1.00  0.00     0.120 C   
BRANCH  18  19
ATOM     19  N2  UNL     1       0.195  -0.970   1.938  1.00  0.00     0.250 N   
ATOM     20  H11 UNL     1       0.128   0.009   1.622  1.00  0.00     0.199 HD  
ATOM     21  H12 UNL     1      -0.364  -1.035   2.791  1.00  0.00     0.199 HD  
BRANCH  19  22
ATOM     22  C10 UNL     1       1.622  -1.219   2.284  1.00  0.00     0.164 C   
BRANCH  22  23
ATOM     23  C11 UNL     1       2.049  -0.320   3.410  1.00  0.00    -0.002 A   
ATOM     24  C12 UNL     1       2.562   0.972   3.135  1.00  0.00     0.012 A   
ATOM     25  C16 UNL     1       1.888  -0.734   4.743  1.00  0.00     0.045 A   
ATOM     26  C13 UNL     1       2.925   1.836   4.174  1.00  0.00     0.037 A   
ATOM     27  C15 UNL     1       2.255   0.145   5.741  1.00  0.00     0.109 A   
ATOM     28  C14 UNL     1       2.761   1.392   5.467  1.00  0.00     0.108 A   
ATOM     29  O2  UNL     1       2.168  -0.099   7.075  1.00  0.00    -0.316 OA  
ATOM     30  O3  UNL     1       3.059   2.091   6.595  1.00  0.00    -0.316 OA  
ATOM     31  C17 UNL     1       2.698   1.135   7.615  1.00  0.00     0.337 C   
ENDBRANCH  22  23
ENDBRANCH  19  22
ENDBRANCH  18  19
BRANCH  18  32
ATOM     32  C18 UNL     1      -1.919  -1.852   0.866  1.00  0.00     0.010 C   
ATOM     33  C19 UNL     1      -2.405  -2.542   2.163  1.00  0.00     0.017 C   
ATOM     34  C20 UNL     1      -2.474  -2.682  -0.315  1.00  0.00     0.017 C   
ATOM     35  C21 UNL     1      -2.545  -0.445   0.803  1.00  0.00     0.017 C   
ENDBRANCH  18  32
ENDBRANCH   3  18
TORSDOF 9
