REMARK SMILES Cc1cc([C@H](CO)n2cc([C@@H]([NH2+]Cc3ccc4c(c3)OCO4)C(C)(C)C)nn2)n[nH]1
REMARK SMILES IDX 8 1 9 2 10 3 27 4 28 5 5 7 4 8 2 9 3 10 30 11 29 12 1 13
REMARK SMILES IDX 6 15 7 16 11 18 12 19 13 22 14 23 15 24 19 25 16 26 18 27
REMARK SMILES IDX 17 28 20 29 22 30 21 31 23 32 24 33 25 34 26 35
REMARK H PARENT 9 6 30 14 7 17 12 20 12 21
ROOT
ATOM     1   N1  UNL     1       1.357   0.602   1.339  1.00  0.00    -0.201 N   
ATOM     2   C7  UNL     1       0.411   0.341   0.383  1.00  0.00     0.046 A   
ATOM     3   C8  UNL     1      -0.716   0.013   1.100  1.00  0.00     0.127 A   
ATOM     4   N3  UNL     1      -0.437   0.096   2.439  1.00  0.00    -0.132 NA  
ATOM     5   N4  UNL     1       0.828   0.461   2.575  1.00  0.00    -0.075 NA  
ATOM     6   H9  UNL     1       0.642   0.353  -0.674  1.00  0.00     0.083 HD  
ENDROOT
BRANCH   1   7
ATOM     7   C5  UNL     1       2.793   0.825   1.183  1.00  0.00     0.175 C   
BRANCH   7   8
ATOM     8   C4  UNL     1       3.068   1.799   0.069  1.00  0.00     0.085 A   
ATOM     9   C2  UNL     1       3.435   3.643  -1.111  1.00  0.00     0.024 A   
ATOM     10  C3  UNL     1       3.142   3.211   0.162  1.00  0.00     0.048 A   
ATOM     11  N6  UNL     1       3.526   2.516  -1.878  1.00  0.00    -0.243 N   
ATOM     12  N5  UNL     1       3.288   1.381  -1.191  1.00  0.00    -0.187 NA  
ATOM     13  C1  UNL     1       3.654   4.998  -1.669  1.00  0.00     0.063 C   
ATOM     14  H29 UNL     1       3.746   2.449  -2.868  1.00  0.00     0.175 HD  
ENDBRANCH   7   8
BRANCH   7  15
ATOM     15  C6  UNL     1       3.531  -0.517   1.027  1.00  0.00     0.187 C   
BRANCH  15  16
ATOM     16  O1  UNL     1       3.120  -1.249  -0.136  1.00  0.00    -0.394 OA  
ATOM     17  H8  UNL     1       3.319  -0.656  -0.897  1.00  0.00     0.210 HD  
ENDBRANCH  15  16
ENDBRANCH   7  15
ENDBRANCH   1   7
BRANCH   3  18
ATOM     18  C9  UNL     1      -2.034  -0.524   0.641  1.00  0.00     0.120 C   
BRANCH  18  19
ATOM     19  N2  UNL     1      -2.369  -1.753   1.465  1.00  0.00     0.250 N   
ATOM     20  H11 UNL     1      -2.280  -1.469   2.451  1.00  0.00     0.199 HD  
ATOM     21  H12 UNL     1      -3.336  -2.045   1.315  1.00  0.00     0.199 HD  
BRANCH  19  22
ATOM     22  C10 UNL     1      -1.475  -2.939   1.272  1.00  0.00     0.164 C   
BRANCH  22  23
ATOM     23  C11 UNL     1      -1.583  -3.535  -0.103  1.00  0.00    -0.002 A   
ATOM     24  C12 UNL     1      -2.731  -4.275  -0.476  1.00  0.00     0.012 A   
ATOM     25  C16 UNL     1      -0.556  -3.331  -1.042  1.00  0.00     0.045 A   
ATOM     26  C13 UNL     1      -2.860  -4.798  -1.768  1.00  0.00     0.037 A   
ATOM     27  C15 UNL     1      -0.717  -3.856  -2.307  1.00  0.00     0.109 A   
ATOM     28  C14 UNL     1      -1.836  -4.568  -2.660  1.00  0.00     0.108 A   
ATOM     29  O2  UNL     1       0.168  -3.738  -3.331  1.00  0.00    -0.316 OA  
ATOM     30  O3  UNL     1      -1.794  -4.995  -3.949  1.00  0.00    -0.316 OA  
ATOM     31  C17 UNL     1      -0.503  -4.498  -4.362  1.00  0.00     0.337 C   
ENDBRANCH  22  23
ENDBRANCH  19  22
ENDBRANCH  18  19
BRANCH  18  32
ATOM     32  C18 UNL     1      -3.210   0.512   0.691  1.00  0.00     0.010 C   
ATOM     33  C19 UNL     1      -4.476  -0.086   0.033  1.00  0.00     0.017 C   
ATOM     34  C20 UNL     1      -2.834   1.774  -0.120  1.00  0.00     0.017 C   
ATOM     35  C21 UNL     1      -3.575   0.948   2.124  1.00  0.00     0.017 C   
ENDBRANCH  18  32
ENDBRANCH   3  18
TORSDOF 9
