REMARK SMILES Cc1ccsc1[C@H](CO)n1cc([C@H](CC(C)C)[NH2+]Cc2ccc3c(c2)OCO3)nn1
REMARK SMILES IDX 10 1 11 2 12 3 29 4 30 5 7 7 6 8 2 9 3 10 4 11 5 12 1 13
REMARK SMILES IDX 8 14 9 15 13 17 14 18 15 19 16 20 17 21 18 22 19 25 20 26
REMARK SMILES IDX 21 27 25 28 22 29 24 30 23 31 26 32 28 33 27 34
REMARK H PARENT 11 6 9 16 18 23 18 24
ROOT
ATOM     1   N1  UNL     1       0.844  -2.564   1.451  1.00  0.00    -0.202 N   
ATOM     2   C8  UNL     1       0.844  -1.201   1.601  1.00  0.00     0.046 A   
ATOM     3   C9  UNL     1      -0.409  -0.816   1.181  1.00  0.00     0.127 A   
ATOM     4   N3  UNL     1      -1.115  -1.924   0.792  1.00  0.00    -0.132 NA  
ATOM     5   N4  UNL     1      -0.339  -2.983   0.951  1.00  0.00    -0.075 NA  
ATOM     6   H10 UNL     1       1.705  -0.662   1.971  1.00  0.00     0.083 HD  
ENDROOT
BRANCH   1   7
ATOM     7   C6  UNL     1       1.937  -3.492   1.742  1.00  0.00     0.162 C   
BRANCH   7   8
ATOM     8   C5  UNL     1       2.463  -4.106   0.455  1.00  0.00     0.017 A   
ATOM     9   C2  UNL     1       2.069  -5.237  -0.255  1.00  0.00    -0.039 A   
ATOM     10  C3  UNL     1       2.896  -5.433  -1.413  1.00  0.00     0.011 A   
ATOM     11  C4  UNL     1       3.863  -4.468  -1.556  1.00  0.00     0.046 A   
ATOM     12  S1  UNL     1       3.783  -3.304  -0.321  1.00  0.00    -0.100 S   
ATOM     13  C1  UNL     1       0.955  -6.174   0.093  1.00  0.00     0.045 C   
ENDBRANCH   7   8
BRANCH   7  14
ATOM     14  C7  UNL     1       1.556  -4.509   2.825  1.00  0.00     0.186 C   
BRANCH  14  15
ATOM     15  O1  UNL     1       1.520  -3.866   4.104  1.00  0.00    -0.394 OA  
ATOM     16  H9  UNL     1       1.393  -4.563   4.774  1.00  0.00     0.210 HD  
ENDBRANCH  14  15
ENDBRANCH   7  14
ENDBRANCH   1   7
BRANCH   3  17
ATOM     17  C10 UNL     1      -1.026   0.536   1.046  1.00  0.00     0.114 C   
BRANCH  17  18
ATOM     18  C11 UNL     1      -1.936   0.839   2.256  1.00  0.00     0.064 C   
BRANCH  18  19
ATOM     19  C12 UNL     1      -2.662   2.200   2.254  1.00  0.00    -0.012 C   
ATOM     20  C13 UNL     1      -3.463   2.359   3.551  1.00  0.00     0.007 C   
ATOM     21  C14 UNL     1      -1.703   3.379   2.093  1.00  0.00     0.007 C   
ENDBRANCH  18  19
ENDBRANCH  17  18
BRANCH  17  22
ATOM     22  N2  UNL     1      -1.842   0.621  -0.224  1.00  0.00     0.249 N   
ATOM     23  H21 UNL     1      -2.534  -0.139  -0.177  1.00  0.00     0.199 HD  
ATOM     24  H22 UNL     1      -2.354   1.505  -0.260  1.00  0.00     0.199 HD  
BRANCH  22  25
ATOM     25  C15 UNL     1      -1.089   0.457  -1.507  1.00  0.00     0.164 C   
BRANCH  25  26
ATOM     26  C16 UNL     1      -0.040   1.515  -1.714  1.00  0.00    -0.002 A   
ATOM     27  C17 UNL     1       1.333   1.183  -1.618  1.00  0.00     0.012 A   
ATOM     28  C21 UNL     1      -0.414   2.846  -1.965  1.00  0.00     0.045 A   
ATOM     29  C18 UNL     1       2.321   2.164  -1.754  1.00  0.00     0.037 A   
ATOM     30  C20 UNL     1       0.585   3.789  -2.090  1.00  0.00     0.109 A   
ATOM     31  C19 UNL     1       1.913   3.458  -1.986  1.00  0.00     0.108 A   
ATOM     32  O2  UNL     1       0.395   5.115  -2.316  1.00  0.00    -0.316 OA  
ATOM     33  O3  UNL     1       2.727   4.535  -2.133  1.00  0.00    -0.316 OA  
ATOM     34  C22 UNL     1       1.762   5.583  -2.368  1.00  0.00     0.337 C   
ENDBRANCH  25  26
ENDBRANCH  22  25
ENDBRANCH  17  22
ENDBRANCH   3  17
TORSDOF 10
