REMARK SMILES Cc1ccsc1[C@@H](CO)n1cc([C@H](CC(C)C)[NH2+]Cc2ccc3c(c2)OCO3)nn1
REMARK SMILES IDX 10 1 11 2 12 3 29 4 30 5 7 7 6 8 2 9 3 10 4 11 5 12 1 13
REMARK SMILES IDX 8 14 9 15 13 17 14 18 15 19 16 20 17 21 18 22 19 25 20 26
REMARK SMILES IDX 21 27 25 28 22 29 24 30 23 31 26 32 28 33 27 34
REMARK H PARENT 11 6 9 16 18 23 18 24
ROOT
ATOM     1   N1  UNL     1      -1.413   0.440   1.266  1.00  0.00    -0.202 N   
ATOM     2   C8  UNL     1      -1.204   0.151  -0.056  1.00  0.00     0.046 A   
ATOM     3   C9  UNL     1      -0.618  -1.093  -0.045  1.00  0.00     0.127 A   
ATOM     4   N3  UNL     1      -0.500  -1.524   1.249  1.00  0.00    -0.132 NA  
ATOM     5   N4  UNL     1      -0.983  -0.581   2.041  1.00  0.00    -0.075 NA  
ATOM     6   H10 UNL     1      -1.464   0.837  -0.851  1.00  0.00     0.083 HD  
ENDROOT
BRANCH   1   7
ATOM     7   C6  UNL     1      -1.986   1.634   1.886  1.00  0.00     0.162 C   
BRANCH   7   8
ATOM     8   C5  UNL     1      -0.940   2.720   2.100  1.00  0.00     0.017 A   
ATOM     9   C2  UNL     1      -0.594   3.343   3.296  1.00  0.00    -0.039 A   
ATOM     10  C3  UNL     1       0.435   4.323   3.097  1.00  0.00     0.011 A   
ATOM     11  C4  UNL     1       0.832   4.421   1.785  1.00  0.00     0.046 A   
ATOM     12  S1  UNL     1      -0.019   3.341   0.783  1.00  0.00    -0.100 S   
ATOM     13  C1  UNL     1      -1.197   3.051   4.635  1.00  0.00     0.045 C   
ENDBRANCH   7   8
BRANCH   7  14
ATOM     14  C7  UNL     1      -3.267   2.145   1.198  1.00  0.00     0.186 C   
BRANCH  14  15
ATOM     15  O1  UNL     1      -3.064   2.644  -0.124  1.00  0.00    -0.394 OA  
ATOM     16  H9  UNL     1      -2.684   3.540  -0.047  1.00  0.00     0.210 HD  
ENDBRANCH  14  15
ENDBRANCH   7  14
ENDBRANCH   1   7
BRANCH   3  17
ATOM     17  C10 UNL     1      -0.074  -1.924  -1.156  1.00  0.00     0.114 C   
BRANCH  17  18
ATOM     18  C11 UNL     1      -1.011  -3.083  -1.547  1.00  0.00     0.064 C   
BRANCH  18  19
ATOM     19  C12 UNL     1      -2.391  -2.658  -2.096  1.00  0.00    -0.012 C   
ATOM     20  C13 UNL     1      -3.231  -3.904  -2.396  1.00  0.00     0.007 C   
ATOM     21  C14 UNL     1      -2.281  -1.796  -3.355  1.00  0.00     0.007 C   
ENDBRANCH  18  19
ENDBRANCH  17  18
BRANCH  17  22
ATOM     22  N2  UNL     1       1.244  -2.550  -0.738  1.00  0.00     0.249 N   
ATOM     23  H21 UNL     1       1.056  -3.054   0.140  1.00  0.00     0.199 HD  
ATOM     24  H22 UNL     1       1.538  -3.241  -1.434  1.00  0.00     0.199 HD  
BRANCH  22  25
ATOM     25  C15 UNL     1       2.373  -1.609  -0.473  1.00  0.00     0.164 C   
BRANCH  25  26
ATOM     26  C16 UNL     1       2.816  -0.862  -1.700  1.00  0.00    -0.002 A   
ATOM     27  C17 UNL     1       3.571  -1.515  -2.704  1.00  0.00     0.012 A   
ATOM     28  C21 UNL     1       2.449   0.484  -1.875  1.00  0.00     0.045 A   
ATOM     29  C18 UNL     1       3.951  -0.840  -3.869  1.00  0.00     0.037 A   
ATOM     30  C20 UNL     1       2.836   1.118  -3.037  1.00  0.00     0.109 A   
ATOM     31  C19 UNL     1       3.566   0.475  -4.007  1.00  0.00     0.108 A   
ATOM     32  O2  UNL     1       2.552   2.405  -3.369  1.00  0.00    -0.316 OA  
ATOM     33  O3  UNL     1       3.838   1.277  -5.068  1.00  0.00    -0.316 OA  
ATOM     34  C22 UNL     1       3.214   2.510  -4.651  1.00  0.00     0.337 C   
ENDBRANCH  25  26
ENDBRANCH  22  25
ENDBRANCH  17  22
ENDBRANCH   3  17
TORSDOF 10
