REMARK SMILES CC(C)C[C@H]([NH2+]Cc1ccc2c(c1)OCO2)c1cn(CCc2ccc(N(C)C)cc2)nn1
REMARK SMILES IDX 17 1 18 2 19 3 31 4 32 5 5 7 4 8 2 9 1 10 3 11 6 12 7 15
REMARK SMILES IDX 8 16 9 17 13 18 10 19 12 20 11 21 14 22 16 23 15 24 20 25
REMARK SMILES IDX 21 26 22 27 23 28 30 29 24 30 29 31 25 32 26 33 27 34 28 35
REMARK H PARENT 18 6 6 13 6 14
ROOT
ATOM     1   C14 UNL     1       0.626  -1.517  -2.023  1.00  0.00     0.127 A   
ATOM     2   C15 UNL     1       1.353  -0.879  -3.006  1.00  0.00     0.045 A   
ATOM     3   N2  UNL     1       0.453  -0.729  -4.027  1.00  0.00    -0.212 N   
ATOM     4   N4  UNL     1      -0.672  -1.424  -3.779  1.00  0.00    -0.076 NA  
ATOM     5   N5  UNL     1      -0.582  -1.900  -2.545  1.00  0.00    -0.132 NA  
ATOM     6   H20 UNL     1       2.317  -0.388  -3.009  1.00  0.00     0.083 HD  
ENDROOT
BRANCH   1   7
ATOM     7   C5  UNL     1       0.934  -1.661  -0.566  1.00  0.00     0.114 C   
BRANCH   7   8
ATOM     8   C4  UNL     1       1.412  -3.072  -0.186  1.00  0.00     0.064 C   
BRANCH   8   9
ATOM     9   C2  UNL     1       1.902  -3.233   1.270  1.00  0.00    -0.012 C   
ATOM     10  C1  UNL     1       2.193  -4.708   1.556  1.00  0.00     0.007 C   
ATOM     11  C3  UNL     1       3.150  -2.397   1.558  1.00  0.00     0.007 C   
ENDBRANCH   8   9
ENDBRANCH   7   8
BRANCH   7  12
ATOM     12  N1  UNL     1      -0.202  -1.192   0.299  1.00  0.00     0.249 N   
ATOM     13  H11 UNL     1       0.142  -0.871   1.210  1.00  0.00     0.199 HD  
ATOM     14  H12 UNL     1      -0.545  -0.320  -0.132  1.00  0.00     0.199 HD  
BRANCH  12  15
ATOM     15  C6  UNL     1      -1.377  -2.087   0.477  1.00  0.00     0.164 C   
BRANCH  15  16
ATOM     16  C7  UNL     1      -2.524  -1.353   1.116  1.00  0.00    -0.002 A   
ATOM     17  C8  UNL     1      -3.553  -0.808   0.312  1.00  0.00     0.012 A   
ATOM     18  C12 UNL     1      -2.559  -1.166   2.508  1.00  0.00     0.045 A   
ATOM     19  C9  UNL     1      -4.609  -0.089   0.884  1.00  0.00     0.037 A   
ATOM     20  C11 UNL     1      -3.615  -0.455   3.039  1.00  0.00     0.109 A   
ATOM     21  C10 UNL     1      -4.609   0.071   2.252  1.00  0.00     0.108 A   
ATOM     22  O1  UNL     1      -3.797  -0.180   4.357  1.00  0.00    -0.316 OA  
ATOM     23  O2  UNL     1      -5.540   0.745   2.975  1.00  0.00    -0.316 OA  
ATOM     24  C13 UNL     1      -5.045   0.547   4.316  1.00  0.00     0.337 C   
ENDBRANCH  15  16
ENDBRANCH  12  15
ENDBRANCH   7  12
ENDBRANCH   1   7
BRANCH   3  25
ATOM     25  C16 UNL     1       0.497   0.281  -5.069  1.00  0.00     0.139 C   
BRANCH  25  26
ATOM     26  C17 UNL     1      -0.370   1.521  -4.763  1.00  0.00     0.057 C   
BRANCH  26  27
ATOM     27  C18 UNL     1      -0.324   1.945  -3.309  1.00  0.00    -0.046 A   
ATOM     28  C19 UNL     1       0.860   2.377  -2.712  1.00  0.00     0.006 A   
ATOM     29  C25 UNL     1      -1.448   1.771  -2.499  1.00  0.00     0.006 A   
ATOM     30  C20 UNL     1       0.951   2.487  -1.316  1.00  0.00     0.024 A   
ATOM     31  C24 UNL     1      -1.356   1.919  -1.111  1.00  0.00     0.024 A   
ATOM     32  C21 UNL     1      -0.142   2.222  -0.471  1.00  0.00     0.028 A   
BRANCH  32  33
ATOM     33  N3  UNL     1      -0.024   2.140   0.935  1.00  0.00    -0.337 N   
ATOM     34  C22 UNL     1      -1.207   2.612   1.684  1.00  0.00     0.129 C   
ATOM     35  C23 UNL     1       1.238   2.626   1.522  1.00  0.00     0.129 C   
ENDBRANCH  32  33
ENDBRANCH  26  27
ENDBRANCH  25  26
ENDBRANCH   3  25
TORSDOF 10
