REMARK SMILES CC(C)C[C@H]([NH2+]Cc1ccc2c(c1)OCO2)c1cn(C[C@@H](O)c2cccc(Cl)c2)nn1
REMARK SMILES IDX 17 1 18 2 19 3 30 4 31 5 5 7 4 8 2 9 1 10 3 11 6 12 7 15
REMARK SMILES IDX 8 16 9 17 13 18 10 19 12 20 11 21 14 22 16 23 15 24 20 25
REMARK SMILES IDX 21 26 22 27 23 29 24 30 29 31 25 32 27 33 26 34 28 35
REMARK H PARENT 18 6 6 13 6 14 22 28
ROOT
ATOM     1   C14 UNL     1      -1.759   0.657  -0.795  1.00  0.00     0.127 A   
ATOM     2   C15 UNL     1      -2.601  -0.404  -1.042  1.00  0.00     0.045 A   
ATOM     3   N2  UNL     1      -3.296  -0.555   0.126  1.00  0.00    -0.209 N   
ATOM     4   N3  UNL     1      -2.955   0.397   1.013  1.00  0.00    -0.076 NA  
ATOM     5   N4  UNL     1      -2.020   1.150   0.460  1.00  0.00    -0.132 NA  
ATOM     6   H20 UNL     1      -2.736  -1.077  -1.878  1.00  0.00     0.083 HD  
ENDROOT
BRANCH   1   7
ATOM     7   C5  UNL     1      -0.656   1.284  -1.591  1.00  0.00     0.114 C   
BRANCH   7   8
ATOM     8   C4  UNL     1      -0.063   0.368  -2.676  1.00  0.00     0.064 C   
BRANCH   8   9
ATOM     9   C2  UNL     1       1.075   0.975  -3.525  1.00  0.00    -0.012 C   
ATOM     10  C1  UNL     1       0.625   2.219  -4.294  1.00  0.00     0.007 C   
ATOM     11  C3  UNL     1       1.602  -0.076  -4.506  1.00  0.00     0.007 C   
ENDBRANCH   8   9
ENDBRANCH   7   8
BRANCH   7  12
ATOM     12  N1  UNL     1       0.418   1.796  -0.666  1.00  0.00     0.249 N   
ATOM     13  H11 UNL     1      -0.081   2.364   0.037  1.00  0.00     0.199 HD  
ATOM     14  H12 UNL     1       1.053   2.443  -1.143  1.00  0.00     0.199 HD  
BRANCH  12  15
ATOM     15  C6  UNL     1       1.196   0.785   0.109  1.00  0.00     0.164 C   
BRANCH  15  16
ATOM     16  C7  UNL     1       2.032   1.456   1.162  1.00  0.00    -0.002 A   
ATOM     17  C8  UNL     1       3.380   1.795   0.903  1.00  0.00     0.012 A   
ATOM     18  C12 UNL     1       1.456   1.792   2.400  1.00  0.00     0.045 A   
ATOM     19  C9  UNL     1       4.151   2.453   1.867  1.00  0.00     0.037 A   
ATOM     20  C11 UNL     1       2.243   2.442   3.327  1.00  0.00     0.109 A   
ATOM     21  C10 UNL     1       3.553   2.763   3.068  1.00  0.00     0.108 A   
ATOM     22  O1  UNL     1       1.845   2.839   4.564  1.00  0.00    -0.316 OA  
ATOM     23  O2  UNL     1       4.146   3.400   4.112  1.00  0.00    -0.316 OA  
ATOM     24  C13 UNL     1       3.062   3.435   5.066  1.00  0.00     0.337 C   
ENDBRANCH  15  16
ENDBRANCH  12  15
ENDBRANCH   7  12
ENDBRANCH   1   7
BRANCH   3  25
ATOM     25  C16 UNL     1      -4.259  -1.579   0.480  1.00  0.00     0.170 C   
BRANCH  25  26
ATOM     26  C17 UNL     1      -3.643  -2.975   0.670  1.00  0.00     0.164 C   
BRANCH  26  27
ATOM     27  O3  UNL     1      -3.252  -3.513  -0.598  1.00  0.00    -0.387 OA  
ATOM     28  H24 UNL     1      -2.946  -4.424  -0.430  1.00  0.00     0.211 HD  
ENDBRANCH  26  27
BRANCH  26  29
ATOM     29  C18 UNL     1      -2.482  -3.019   1.644  1.00  0.00    -0.016 A   
ATOM     30  C19 UNL     1      -2.722  -3.151   3.020  1.00  0.00     0.006 A   
ATOM     31  C23 UNL     1      -1.153  -2.889   1.204  1.00  0.00     0.027 A   
ATOM     32  C20 UNL     1      -1.661  -3.156   3.931  1.00  0.00     0.002 A   
ATOM     33  C22 UNL     1      -0.101  -2.881   2.119  1.00  0.00     0.041 A   
ATOM     34  C21 UNL     1      -0.348  -3.019   3.481  1.00  0.00     0.020 A   
ATOM     35  CL1 UNL     1       1.510  -2.673   1.550  1.00  0.00    -0.084 Cl  
ENDBRANCH  26  29
ENDBRANCH  25  26
ENDBRANCH   3  25
TORSDOF 10
