REMARK SMILES CC(C)C[C@H]([NH2+]Cc1ccc2c(c1)OCO2)c1cn(C[C@H](O)c2cccc(Cl)c2)nn1
REMARK SMILES IDX 17 1 18 2 19 3 30 4 31 5 5 7 4 8 2 9 1 10 3 11 6 12 7 15
REMARK SMILES IDX 8 16 9 17 13 18 10 19 12 20 11 21 14 22 16 23 15 24 20 25
REMARK SMILES IDX 21 26 22 27 23 29 24 30 29 31 25 32 27 33 26 34 28 35
REMARK H PARENT 18 6 6 13 6 14 22 28
ROOT
ATOM     1   C14 UNL     1       0.481   0.649  -2.043  1.00  0.00     0.127 A   
ATOM     2   C15 UNL     1       0.130  -0.462  -2.775  1.00  0.00     0.045 A   
ATOM     3   N2  UNL     1       1.302  -1.153  -2.909  1.00  0.00    -0.209 N   
ATOM     4   N3  UNL     1       2.317  -0.494  -2.321  1.00  0.00    -0.076 NA  
ATOM     5   N4  UNL     1       1.828   0.610  -1.785  1.00  0.00    -0.132 NA  
ATOM     6   H20 UNL     1      -0.805  -0.835  -3.169  1.00  0.00     0.083 HD  
ENDROOT
BRANCH   1   7
ATOM     7   C5  UNL     1      -0.338   1.751  -1.460  1.00  0.00     0.114 C   
BRANCH   7   8
ATOM     8   C4  UNL     1      -0.298   3.037  -2.304  1.00  0.00     0.064 C   
BRANCH   8   9
ATOM     9   C2  UNL     1      -0.891   2.913  -3.724  1.00  0.00    -0.012 C   
ATOM     10  C1  UNL     1      -2.366   2.509  -3.707  1.00  0.00     0.007 C   
ATOM     11  C3  UNL     1      -0.730   4.242  -4.468  1.00  0.00     0.007 C   
ENDBRANCH   8   9
ENDBRANCH   7   8
BRANCH   7  12
ATOM     12  N1  UNL     1       0.205   2.104  -0.093  1.00  0.00     0.249 N   
ATOM     13  H11 UNL     1       1.228   2.182  -0.197  1.00  0.00     0.199 HD  
ATOM     14  H12 UNL     1      -0.125   3.022   0.221  1.00  0.00     0.199 HD  
BRANCH  12  15
ATOM     15  C6  UNL     1      -0.055   1.095   0.972  1.00  0.00     0.164 C   
BRANCH  15  16
ATOM     16  C7  UNL     1       0.693   1.447   2.225  1.00  0.00    -0.002 A   
ATOM     17  C8  UNL     1       1.989   0.921   2.447  1.00  0.00     0.012 A   
ATOM     18  C12 UNL     1       0.134   2.335   3.161  1.00  0.00     0.045 A   
ATOM     19  C9  UNL     1       2.714   1.260   3.594  1.00  0.00     0.037 A   
ATOM     20  C11 UNL     1       0.876   2.650   4.280  1.00  0.00     0.109 A   
ATOM     21  C10 UNL     1       2.129   2.127   4.492  1.00  0.00     0.108 A   
ATOM     22  O1  UNL     1       0.489   3.487   5.276  1.00  0.00    -0.316 OA  
ATOM     23  O2  UNL     1       2.684   2.567   5.651  1.00  0.00    -0.316 OA  
ATOM     24  C13 UNL     1       1.631   3.410   6.159  1.00  0.00     0.337 C   
ENDBRANCH  15  16
ENDBRANCH  12  15
ENDBRANCH   7  12
ENDBRANCH   1   7
BRANCH   3  25
ATOM     25  C16 UNL     1       1.528  -2.430  -3.553  1.00  0.00     0.170 C   
BRANCH  25  26
ATOM     26  C17 UNL     1       0.958  -3.630  -2.780  1.00  0.00     0.164 C   
BRANCH  26  27
ATOM     27  O3  UNL     1      -0.473  -3.617  -2.845  1.00  0.00    -0.387 OA  
ATOM     28  H24 UNL     1      -0.775  -4.457  -2.449  1.00  0.00     0.211 HD  
ENDBRANCH  26  27
BRANCH  26  29
ATOM     29  C18 UNL     1       1.422  -3.720  -1.340  1.00  0.00    -0.016 A   
ATOM     30  C19 UNL     1       2.658  -4.312  -1.036  1.00  0.00     0.006 A   
ATOM     31  C23 UNL     1       0.661  -3.180  -0.291  1.00  0.00     0.027 A   
ATOM     32  C20 UNL     1       3.119  -4.362   0.282  1.00  0.00     0.002 A   
ATOM     33  C22 UNL     1       1.129  -3.228   1.023  1.00  0.00     0.041 A   
ATOM     34  C21 UNL     1       2.356  -3.816   1.313  1.00  0.00     0.020 A   
ATOM     35  CL1 UNL     1       0.188  -2.531   2.283  1.00  0.00    -0.084 Cl  
ENDBRANCH  26  29
ENDBRANCH  25  26
ENDBRANCH   3  25
TORSDOF 10
