REMARK SMILES COc1cccc(C)c1Cn1cc([C@@H]([NH2+]Cc2ccc3c(c2)OCO3)C2CCCC2)nn1
REMARK SMILES IDX 11 1 12 2 13 3 31 4 32 5 10 7 9 8 3 9 4 10 5 11 7 12 6 13
REMARK SMILES IDX 8 14 2 15 1 16 14 17 15 18 16 21 17 22 18 23 22 24 19 25
REMARK SMILES IDX 21 26 20 27 23 28 25 29 24 30 26 31 27 32 30 33 28 34 29 35
REMARK H PARENT 12 6 15 19 15 20
ROOT
ATOM     1   N1  UNL     1      -0.438   0.345   2.095  1.00  0.00    -0.208 N   
ATOM     2   C10 UNL     1       0.472  -0.302   1.302  1.00  0.00     0.046 A   
ATOM     3   C11 UNL     1       0.420   0.380   0.108  1.00  0.00     0.127 A   
ATOM     4   N3  UNL     1      -0.487   1.403   0.211  1.00  0.00    -0.132 NA  
ATOM     5   N4  UNL     1      -0.999   1.377   1.431  1.00  0.00    -0.076 NA  
ATOM     6   H12 UNL     1       1.043  -1.150   1.656  1.00  0.00     0.083 HD  
ENDROOT
BRANCH   1   7
ATOM     7   C9  UNL     1      -0.780   0.083   3.484  1.00  0.00     0.172 C   
BRANCH   7   8
ATOM     8   C8  UNL     1      -1.394  -1.291   3.663  1.00  0.00     0.005 A   
ATOM     9   C2  UNL     1      -0.573  -2.375   4.057  1.00  0.00     0.080 A   
ATOM     10  C3  UNL     1      -1.125  -3.648   4.224  1.00  0.00     0.034 A   
ATOM     11  C4  UNL     1      -2.485  -3.859   4.006  1.00  0.00     0.003 A   
ATOM     12  C6  UNL     1      -2.775  -1.514   3.436  1.00  0.00    -0.044 A   
ATOM     13  C5  UNL     1      -3.302  -2.803   3.614  1.00  0.00     0.004 A   
ATOM     14  C7  UNL     1      -3.711  -0.413   3.008  1.00  0.00     0.045 C   
BRANCH   9  15
ATOM     15  O1  UNL     1       0.759  -2.089   4.228  1.00  0.00    -0.349 OA  
ATOM     16  C1  UNL     1       1.555  -3.076   4.878  1.00  0.00     0.203 C   
ENDBRANCH   9  15
ENDBRANCH   7   8
ENDBRANCH   1   7
BRANCH   3  17
ATOM     17  C12 UNL     1       1.120   0.148  -1.192  1.00  0.00     0.117 C   
BRANCH  17  18
ATOM     18  N2  UNL     1       0.288   0.692  -2.322  1.00  0.00     0.249 N   
ATOM     19  H14 UNL     1      -0.080   1.600  -1.999  1.00  0.00     0.199 HD  
ATOM     20  H15 UNL     1       0.840   0.888  -3.159  1.00  0.00     0.199 HD  
BRANCH  18  21
ATOM     21  C13 UNL     1      -0.887  -0.141  -2.700  1.00  0.00     0.164 C   
BRANCH  21  22
ATOM     22  C14 UNL     1      -1.725   0.573  -3.722  1.00  0.00    -0.002 A   
ATOM     23  C15 UNL     1      -1.444   0.440  -5.103  1.00  0.00     0.012 A   
ATOM     24  C19 UNL     1      -2.756   1.433  -3.304  1.00  0.00     0.045 A   
ATOM     25  C16 UNL     1      -2.183   1.146  -6.057  1.00  0.00     0.037 A   
ATOM     26  C18 UNL     1      -3.468   2.112  -4.271  1.00  0.00     0.109 A   
ATOM     27  C17 UNL     1      -3.189   1.974  -5.609  1.00  0.00     0.108 A   
ATOM     28  O2  UNL     1      -4.489   2.977  -4.040  1.00  0.00    -0.316 OA  
ATOM     29  O3  UNL     1      -3.997   2.739  -6.388  1.00  0.00    -0.316 OA  
ATOM     30  C20 UNL     1      -4.843   3.352  -5.391  1.00  0.00     0.337 C   
ENDBRANCH  21  22
ENDBRANCH  18  21
ENDBRANCH  17  18
BRANCH  17  31
ATOM     31  C21 UNL     1       2.531   0.769  -1.201  1.00  0.00     0.043 C   
ATOM     32  C22 UNL     1       3.397   0.359  -2.395  1.00  0.00     0.010 C   
ATOM     33  C25 UNL     1       2.604   2.298  -1.260  1.00  0.00     0.010 C   
ATOM     34  C23 UNL     1       4.562   1.346  -2.370  1.00  0.00     0.001 C   
ATOM     35  C24 UNL     1       4.062   2.580  -1.618  1.00  0.00     0.001 C   
ENDBRANCH  17  31
ENDBRANCH   3  17
TORSDOF 8
