REMARK SMILES CC(C)[C@H]([NH2+]Cc1ccc2c(c1)OCO2)c1cn(CCc2ccccc2O)nn1
REMARK SMILES IDX 16 1 17 2 18 3 28 4 29 5 4 7 2 8 1 9 3 10 5 11 6 14 7 15
REMARK SMILES IDX 8 16 12 17 9 18 11 19 10 20 13 21 15 22 14 23 19 24 20 25
REMARK SMILES IDX 21 26 22 27 26 28 23 29 25 30 24 31 27 32
REMARK H PARENT 17 6 5 12 5 13 27 33
ROOT
ATOM     1   C13 UNL     1      -1.674   0.324  -1.354  1.00  0.00     0.127 A   
ATOM     2   C14 UNL     1      -0.950   0.667  -2.476  1.00  0.00     0.045 A   
ATOM     3   N2  UNL     1      -0.834   2.026  -2.378  1.00  0.00    -0.212 N   
ATOM     4   N3  UNL     1      -1.544   2.500  -1.337  1.00  0.00    -0.076 NA  
ATOM     5   N4  UNL     1      -2.058   1.465  -0.696  1.00  0.00    -0.132 NA  
ATOM     6   H18 UNL     1      -0.399   0.091  -3.207  1.00  0.00     0.083 HD  
ENDROOT
BRANCH   1   7
ATOM     7   C4  UNL     1      -1.831  -1.003  -0.684  1.00  0.00     0.117 C   
BRANCH   7   8
ATOM     8   C2  UNL     1      -3.280  -1.537  -0.617  1.00  0.00     0.037 C   
ATOM     9   C1  UNL     1      -4.249  -0.682   0.205  1.00  0.00     0.014 C   
ATOM     10  C3  UNL     1      -3.850  -1.754  -2.024  1.00  0.00     0.014 C   
ENDBRANCH   7   8
BRANCH   7  11
ATOM     11  N1  UNL     1      -1.221  -0.871   0.686  1.00  0.00     0.249 N   
ATOM     12  H9  UNL     1      -1.728  -0.145   1.207  1.00  0.00     0.199 HD  
ATOM     13  H10 UNL     1      -0.288  -0.431   0.560  1.00  0.00     0.199 HD  
BRANCH  11  14
ATOM     14  C5  UNL     1      -1.066  -2.098   1.497  1.00  0.00     0.164 C   
BRANCH  14  15
ATOM     15  C6  UNL     1      -0.064  -1.896   2.599  1.00  0.00    -0.002 A   
ATOM     16  C7  UNL     1      -0.384  -1.105   3.728  1.00  0.00     0.012 A   
ATOM     17  C11 UNL     1       1.222  -2.455   2.487  1.00  0.00     0.045 A   
ATOM     18  C8  UNL     1       0.563  -0.870   4.731  1.00  0.00     0.037 A   
ATOM     19  C10 UNL     1       2.131  -2.204   3.493  1.00  0.00     0.109 A   
ATOM     20  C9  UNL     1       1.812  -1.433   4.584  1.00  0.00     0.108 A   
ATOM     21  O1  UNL     1       3.412  -2.655   3.531  1.00  0.00    -0.316 OA  
ATOM     22  O2  UNL     1       2.852  -1.303   5.449  1.00  0.00    -0.316 OA  
ATOM     23  C12 UNL     1       3.865  -2.087   4.783  1.00  0.00     0.337 C   
ENDBRANCH  14  15
ENDBRANCH  11  14
ENDBRANCH   7  11
ENDBRANCH   1   7
BRANCH   3  24
ATOM     24  C15 UNL     1       0.170   2.865  -2.999  1.00  0.00     0.139 C   
BRANCH  24  25
ATOM     25  C16 UNL     1       1.303   3.216  -2.024  1.00  0.00     0.059 C   
BRANCH  25  26
ATOM     26  C17 UNL     1       2.158   2.031  -1.613  1.00  0.00    -0.016 A   
ATOM     27  C18 UNL     1       3.297   1.749  -2.388  1.00  0.00     0.006 A   
ATOM     28  C22 UNL     1       1.889   1.196  -0.514  1.00  0.00     0.074 A   
ATOM     29  C19 UNL     1       4.149   0.690  -2.061  1.00  0.00     0.000 A   
ATOM     30  C21 UNL     1       2.746   0.145  -0.184  1.00  0.00     0.033 A   
ATOM     31  C20 UNL     1       3.877  -0.108  -0.955  1.00  0.00     0.003 A   
BRANCH  28  32
ATOM     32  O3  UNL     1       0.787   1.319   0.292  1.00  0.00    -0.361 OA  
ATOM     33  H27 UNL     1       0.344   2.168   0.094  1.00  0.00     0.218 HD  
ENDBRANCH  28  32
ENDBRANCH  25  26
ENDBRANCH  24  25
ENDBRANCH   3  24
TORSDOF 9
