REMARK SMILES Cc1cc(=O)oc2cc(NC(=O)[C@H](CCCNC(N)=[NH2+])NC(=O)[C@H](Cc3ccccc3)NC(=O)OCc3ccccc3)ccc12
REMARK SMILES IDX 13 1 11 2 10 3 12 5 9 6 2 7 3 8 45 9 4 10 7 11 44 12 6 13
REMARK SMILES IDX 8 14 43 15 1 16 5 17 14 18 15 19 16 20 17 21 18 22 19 23
REMARK SMILES IDX 20 27 21 30 22 31 23 33 24 34 25 35 26 36 27 37 31 38 28 39
REMARK SMILES IDX 30 40 29 41 32 42 33 43 34 45 35 46 36 47 37 48 38 49 42 50
REMARK SMILES IDX 39 51 41 52 40 53
REMARK H PARENT 10 4 17 24 19 25 19 26 20 28 20 29 21 32 32 44
ROOT
ATOM     1   C9  UNL     1      -0.828   0.918   0.354  1.00  0.00     0.160 C   
ENDROOT
BRANCH   1   2
ATOM     2   C8  UNL     1      -2.313   0.490   0.240  1.00  0.00     0.236 C   
ATOM     3   N1  UNL     1      -2.830  -0.064   1.397  1.00  0.00    -0.284 N   
ATOM     4   H6  UNL     1      -2.188  -0.259   2.155  1.00  0.00     0.156 HD  
ATOM     5   O3  UNL     1      -2.917   0.672  -0.817  1.00  0.00    -0.275 OA  
BRANCH   3   6
ATOM     6   C7  UNL     1      -4.168  -0.464   1.619  1.00  0.00     0.035 A   
ATOM     7   C2  UNL     1      -8.196  -1.733   2.472  1.00  0.00    -0.035 A   
ATOM     8   C3  UNL     1      -9.117  -1.452   1.539  1.00  0.00     0.084 A   
ATOM     9   C33 UNL     1      -6.809  -1.315   2.230  1.00  0.00     0.009 A   
ATOM     10  C4  UNL     1      -8.815  -0.746   0.284  1.00  0.00     0.291 A   
ATOM     11  C5  UNL     1      -6.504  -0.661   1.038  1.00  0.00     0.095 A   
ATOM     12  C32 UNL     1      -5.760  -1.535   3.128  1.00  0.00     0.013 A   
ATOM     13  O2  UNL     1      -7.496  -0.381   0.078  1.00  0.00    -0.274 OA  
ATOM     14  C6  UNL     1      -5.208  -0.237   0.721  1.00  0.00     0.058 A   
ATOM     15  C31 UNL     1      -4.456  -1.110   2.827  1.00  0.00     0.024 A   
ATOM     16  C1  UNL     1      -8.558  -2.463   3.732  1.00  0.00     0.045 C   
ATOM     17  O1  UNL     1      -9.698  -0.503  -0.530  1.00  0.00    -0.261 OA  
ENDBRANCH   3   6
ENDBRANCH   1   2
BRANCH   1  18
ATOM     18  C10 UNL     1      -0.707   2.162   1.241  1.00  0.00     0.035 C   
BRANCH  18  19
ATOM     19  C11 UNL     1       0.679   2.823   1.316  1.00  0.00     0.037 C   
BRANCH  19  20
ATOM     20  C12 UNL     1       1.781   1.961   1.930  1.00  0.00     0.184 C   
BRANCH  20  21
ATOM     21  N2  UNL     1       2.422   1.111   0.926  1.00  0.00    -0.239 N   
ATOM     22  C13 UNL     1       3.668   1.175   0.445  1.00  0.00     0.316 C   
ATOM     23  N4  UNL     1       4.570   2.055   0.878  1.00  0.00    -0.252 N   
ATOM     24  H14 UNL     1       1.864   0.389   0.464  1.00  0.00     0.244 HD  
ATOM     25  H17 UNL     1       4.351   2.748   1.577  1.00  0.00     0.241 HD  
ATOM     26  H18 UNL     1       5.495   2.073   0.467  1.00  0.00     0.241 HD  
BRANCH  22  27
ATOM     27  N3  UNL     1       4.025   0.312  -0.506  1.00  0.00    -0.252 N   
ATOM     28  H15 UNL     1       3.321  -0.301  -0.913  1.00  0.00     0.241 HD  
ATOM     29  H16 UNL     1       4.942   0.333  -0.932  1.00  0.00     0.241 HD  
ENDBRANCH  22  27
ENDBRANCH  20  21
ENDBRANCH  19  20
ENDBRANCH  18  19
ENDBRANCH   1  18
BRANCH   1  30
ATOM     30  N5  UNL     1      -0.392   1.188  -1.018  1.00  0.00    -0.302 N   
ATOM     31  C14 UNL     1       0.590   0.463  -1.653  1.00  0.00     0.233 C   
ATOM     32  H19 UNL     1      -1.123   1.594  -1.604  1.00  0.00     0.150 HD  
ATOM     33  O4  UNL     1       1.375  -0.250  -1.019  1.00  0.00    -0.276 OA  
BRANCH  31  34
ATOM     34  C15 UNL     1       0.658   0.663  -3.184  1.00  0.00     0.166 C   
BRANCH  34  35
ATOM     35  C16 UNL     1      -0.489  -0.059  -3.913  1.00  0.00     0.068 C   
BRANCH  35  36
ATOM     36  C17 UNL     1      -0.491  -1.563  -3.756  1.00  0.00    -0.046 A   
ATOM     37  C18 UNL     1       0.205  -2.376  -4.662  1.00  0.00     0.004 A   
ATOM     38  C22 UNL     1      -1.194  -2.169  -2.705  1.00  0.00     0.004 A   
ATOM     39  C19 UNL     1       0.218  -3.764  -4.505  1.00  0.00     0.000 A   
ATOM     40  C21 UNL     1      -1.179  -3.556  -2.550  1.00  0.00     0.000 A   
ATOM     41  C20 UNL     1      -0.470  -4.352  -3.446  1.00  0.00     0.000 A   
ENDBRANCH  35  36
ENDBRANCH  34  35
BRANCH  34  42
ATOM     42  N6  UNL     1       1.974   0.283  -3.680  1.00  0.00    -0.279 N   
ATOM     43  C23 UNL     1       3.045   1.117  -3.603  1.00  0.00     0.352 C   
ATOM     44  H28 UNL     1       2.166  -0.680  -3.921  1.00  0.00     0.153 HD  
ATOM     45  O5  UNL     1       3.023   2.236  -3.112  1.00  0.00    -0.243 OA  
BRANCH  43  46
ATOM     46  O6  UNL     1       4.129   0.501  -4.124  1.00  0.00    -0.296 OA  
BRANCH  46  47
ATOM     47  C24 UNL     1       5.279   1.339  -4.321  1.00  0.00     0.208 C   
BRANCH  47  48
ATOM     48  C25 UNL     1       6.203   1.272  -3.129  1.00  0.00    -0.022 A   
ATOM     49  C26 UNL     1       6.795   0.057  -2.755  1.00  0.00     0.006 A   
ATOM     50  C30 UNL     1       6.514   2.431  -2.405  1.00  0.00     0.006 A   
ATOM     51  C27 UNL     1       7.678   0.003  -1.675  1.00  0.00     0.000 A   
ATOM     52  C29 UNL     1       7.412   2.379  -1.337  1.00  0.00     0.000 A   
ATOM     53  C28 UNL     1       7.987   1.164  -0.968  1.00  0.00     0.000 A   
ENDBRANCH  47  48
ENDBRANCH  46  47
ENDBRANCH  43  46
ENDBRANCH  34  42
ENDBRANCH  31  34
ENDBRANCH   1  30
TORSDOF 15
