REMARK SMILES CC(C)(C)[C@H]([NH2+]Cc1ccc2c(c1)OCO2)c1cn(CCc2cnc[nH]2)nn1
REMARK SMILES IDX 17 1 18 2 19 3 27 4 28 5 5 7 2 8 1 9 3 10 4 11 6 12 7 15
REMARK SMILES IDX 8 16 9 17 13 18 10 19 12 20 11 21 14 22 16 23 15 24 20 25
REMARK SMILES IDX 21 26 22 27 23 28 26 29 24 30 25 31
REMARK H PARENT 18 6 6 13 6 14 26 32
ROOT
ATOM     1   C14 UNL     1       1.382   0.653   0.764  1.00  0.00     0.127 A   
ATOM     2   C15 UNL     1       2.529  -0.110   0.778  1.00  0.00     0.045 A   
ATOM     3   N2  UNL     1       2.142  -1.274   1.382  1.00  0.00    -0.212 N   
ATOM     4   N5  UNL     1       0.858  -1.208   1.776  1.00  0.00    -0.076 NA  
ATOM     5   N6  UNL     1       0.372  -0.044   1.375  1.00  0.00    -0.132 NA  
ATOM     6   H20 UNL     1       3.521   0.032   0.373  1.00  0.00     0.083 HD  
ENDROOT
BRANCH   1   7
ATOM     7   C5  UNL     1       1.091   1.972   0.116  1.00  0.00     0.120 C   
BRANCH   7   8
ATOM     8   C2  UNL     1       0.978   3.176   1.114  1.00  0.00     0.010 C   
ATOM     9   C1  UNL     1      -0.247   3.076   2.045  1.00  0.00     0.017 C   
ATOM     10  C3  UNL     1       0.882   4.505   0.329  1.00  0.00     0.017 C   
ATOM     11  C4  UNL     1       2.248   3.261   1.991  1.00  0.00     0.017 C   
ENDBRANCH   7   8
BRANCH   7  12
ATOM     12  N1  UNL     1      -0.171   1.837  -0.702  1.00  0.00     0.250 N   
ATOM     13  H11 UNL     1      -0.685   2.718  -0.774  1.00  0.00     0.199 HD  
ATOM     14  H12 UNL     1      -0.795   1.196  -0.186  1.00  0.00     0.199 HD  
BRANCH  12  15
ATOM     15  C6  UNL     1       0.016   1.275  -2.071  1.00  0.00     0.164 C   
BRANCH  15  16
ATOM     16  C7  UNL     1      -1.300   1.181  -2.791  1.00  0.00    -0.002 A   
ATOM     17  C8  UNL     1      -1.943  -0.069  -2.946  1.00  0.00     0.012 A   
ATOM     18  C12 UNL     1      -1.922   2.342  -3.285  1.00  0.00     0.045 A   
ATOM     19  C9  UNL     1      -3.186  -0.167  -3.583  1.00  0.00     0.037 A   
ATOM     20  C11 UNL     1      -3.148   2.211  -3.902  1.00  0.00     0.109 A   
ATOM     21  C10 UNL     1      -3.763   0.992  -4.048  1.00  0.00     0.108 A   
ATOM     22  O1  UNL     1      -3.880   3.229  -4.428  1.00  0.00    -0.316 OA  
ATOM     23  O2  UNL     1      -4.959   1.086  -4.684  1.00  0.00    -0.316 OA  
ATOM     24  C13 UNL     1      -5.027   2.507  -4.933  1.00  0.00     0.337 C   
ENDBRANCH  15  16
ENDBRANCH  12  15
ENDBRANCH   7  12
ENDBRANCH   1   7
BRANCH   3  25
ATOM     25  C16 UNL     1       2.878  -2.521   1.454  1.00  0.00     0.140 C   
BRANCH  25  26
ATOM     26  C17 UNL     1       2.298  -3.626   0.558  1.00  0.00     0.074 C   
BRANCH  26  27
ATOM     27  C18 UNL     1       2.078  -3.171  -0.847  1.00  0.00     0.028 A   
ATOM     28  C19 UNL     1       0.994  -2.543  -1.421  1.00  0.00     0.131 A   
ATOM     29  N4  UNL     1       2.987  -3.299  -1.866  1.00  0.00    -0.308 N   
ATOM     30  N3  UNL     1       1.266  -2.173  -2.709  1.00  0.00    -0.248 NA  
ATOM     31  C20 UNL     1       2.456  -2.674  -2.962  1.00  0.00     0.185 A   
ATOM     32  H27 UNL     1       3.883  -3.769  -1.832  1.00  0.00     0.153 HD  
ENDBRANCH  26  27
ENDBRANCH  25  26
ENDBRANCH   3  25
TORSDOF 8
