REMARK SMILES Cc1ccc(F)c(Cn2cc([C@H](CC(C)C)[NH2+]Cc3ccc4c(c3)OCO4)nn2)c1
REMARK SMILES IDX 9 1 10 2 11 3 28 4 29 5 8 7 7 8 2 9 3 10 30 11 4 12 5 13
REMARK SMILES IDX 1 14 6 15 12 16 13 17 14 18 15 19 16 20 17 21 18 24 19 25
REMARK SMILES IDX 20 26 24 27 21 28 23 29 22 30 25 31 27 32 26 33
REMARK H PARENT 10 6 17 22 17 23
ROOT
ATOM     1   N1  UNL     1       0.946   0.115  -2.430  1.00  0.00    -0.208 N   
ATOM     2   C8  UNL     1      -0.347  -0.014  -2.001  1.00  0.00     0.046 A   
ATOM     3   C9  UNL     1      -0.226  -0.425  -0.692  1.00  0.00     0.127 A   
ATOM     4   N3  UNL     1       1.103  -0.592  -0.396  1.00  0.00    -0.132 NA  
ATOM     5   N4  UNL     1       1.808  -0.273  -1.469  1.00  0.00    -0.076 NA  
ATOM     6   H8  UNL     1      -1.190   0.221  -2.636  1.00  0.00     0.083 HD  
ENDROOT
BRANCH   1   7
ATOM     7   C7  UNL     1       1.425   0.557  -3.728  1.00  0.00     0.172 C   
BRANCH   7   8
ATOM     8   C6  UNL     1       1.488   2.056  -3.797  1.00  0.00     0.007 A   
ATOM     9   C2  UNL     1       2.711   4.150  -3.549  1.00  0.00    -0.051 A   
ATOM     10  C3  UNL     1       1.554   4.860  -3.897  1.00  0.00     0.006 A   
ATOM     11  C23 UNL     1       2.667   2.749  -3.485  1.00  0.00     0.012 A   
ATOM     12  C4  UNL     1       0.375   4.180  -4.199  1.00  0.00     0.040 A   
ATOM     13  C5  UNL     1       0.352   2.792  -4.145  1.00  0.00     0.128 A   
ATOM     14  C1  UNL     1       3.971   4.885  -3.190  1.00  0.00     0.044 C   
ATOM     15  F1  UNL     1      -0.793   2.149  -4.420  1.00  0.00    -0.207 F   
ENDBRANCH   7   8
ENDBRANCH   1   7
BRANCH   3  16
ATOM     16  C10 UNL     1      -1.257  -0.735   0.344  1.00  0.00     0.114 C   
BRANCH  16  17
ATOM     17  C11 UNL     1      -1.630   0.492   1.198  1.00  0.00     0.064 C   
BRANCH  17  18
ATOM     18  C12 UNL     1      -2.304   1.652   0.434  1.00  0.00    -0.012 C   
ATOM     19  C13 UNL     1      -2.548   2.825   1.388  1.00  0.00     0.007 C   
ATOM     20  C14 UNL     1      -3.625   1.232  -0.212  1.00  0.00     0.007 C   
ENDBRANCH  17  18
ENDBRANCH  16  17
BRANCH  16  21
ATOM     21  N2  UNL     1      -0.701  -1.800   1.259  1.00  0.00     0.249 N   
ATOM     22  H19 UNL     1      -0.004  -1.371   1.883  1.00  0.00     0.199 HD  
ATOM     23  H20 UNL     1      -0.129  -2.432   0.680  1.00  0.00     0.199 HD  
BRANCH  21  24
ATOM     24  C15 UNL     1      -1.672  -2.612   2.028  1.00  0.00     0.164 C   
BRANCH  24  25
ATOM     25  C16 UNL     1      -0.962  -3.645   2.856  1.00  0.00    -0.002 A   
ATOM     26  C17 UNL     1      -0.565  -3.348   4.182  1.00  0.00     0.012 A   
ATOM     27  C21 UNL     1      -0.639  -4.895   2.301  1.00  0.00     0.045 A   
ATOM     28  C18 UNL     1       0.134  -4.285   4.950  1.00  0.00     0.037 A   
ATOM     29  C20 UNL     1       0.051  -5.796   3.085  1.00  0.00     0.109 A   
ATOM     30  C19 UNL     1       0.427  -5.501   4.372  1.00  0.00     0.108 A   
ATOM     31  O1  UNL     1       0.440  -7.041   2.703  1.00  0.00    -0.316 OA  
ATOM     32  O2  UNL     1       1.098  -6.523   4.965  1.00  0.00    -0.316 OA  
ATOM     33  C22 UNL     1       1.089  -7.507   3.908  1.00  0.00     0.337 C   
ENDBRANCH  24  25
ENDBRANCH  21  24
ENDBRANCH  16  21
ENDBRANCH   3  16
TORSDOF 8
