REMARK SMILES CC(C)[C@H]([NH2+]Cc1ccc2c(c1)OCO2)c1cn(Cc2ccn3nccc3c2)nn1
REMARK SMILES IDX 4 1 2 2 1 3 3 4 5 5 6 8 7 9 8 10 12 11 9 12 11 13 10 14
REMARK SMILES IDX 13 15 15 16 14 17 16 18 17 19 30 20 18 21 29 22 19 24 20 25
REMARK SMILES IDX 21 26 28 27 22 28 27 29 23 30 26 31 24 32 25 33
REMARK H PARENT 5 6 5 7 17 23
ROOT
ATOM     1   C4  UNL     1       0.506  -2.367  -2.158  1.00  0.00     0.117 C   
ENDROOT
BRANCH   1   2
ATOM     2   C2  UNL     1       1.348  -2.908  -3.343  1.00  0.00     0.037 C   
ATOM     3   C1  UNL     1       0.658  -2.794  -4.709  1.00  0.00     0.014 C   
ATOM     4   C3  UNL     1       1.792  -4.356  -3.103  1.00  0.00     0.014 C   
ENDBRANCH   1   2
BRANCH   1   5
ATOM     5   N1  UNL     1      -0.823  -3.084  -2.077  1.00  0.00     0.249 N   
ATOM     6   H9  UNL     1      -1.521  -2.420  -2.451  1.00  0.00     0.199 HD  
ATOM     7   H10 UNL     1      -0.849  -3.891  -2.705  1.00  0.00     0.199 HD  
BRANCH   5   8
ATOM     8   C5  UNL     1      -1.264  -3.511  -0.720  1.00  0.00     0.164 C   
BRANCH   8   9
ATOM     9   C6  UNL     1      -1.449  -2.382   0.254  1.00  0.00    -0.002 A   
ATOM     10  C7  UNL     1      -2.519  -1.468   0.100  1.00  0.00     0.012 A   
ATOM     11  C11 UNL     1      -0.551  -2.217   1.323  1.00  0.00     0.045 A   
ATOM     12  C8  UNL     1      -2.693  -0.406   0.995  1.00  0.00     0.037 A   
ATOM     13  C10 UNL     1      -0.752  -1.161   2.188  1.00  0.00     0.109 A   
ATOM     14  C9  UNL     1      -1.794  -0.282   2.030  1.00  0.00     0.108 A   
ATOM     15  O1  UNL     1       0.019  -0.865   3.266  1.00  0.00    -0.316 OA  
ATOM     16  O2  UNL     1      -1.816   0.674   2.993  1.00  0.00    -0.316 OA  
ATOM     17  C12 UNL     1      -0.674   0.292   3.791  1.00  0.00     0.337 C   
ENDBRANCH   8   9
ENDBRANCH   5   8
ENDBRANCH   1   5
BRANCH   1  18
ATOM     18  C13 UNL     1       0.278  -0.892  -2.250  1.00  0.00     0.127 A   
ATOM     19  C14 UNL     1       1.037   0.179  -1.834  1.00  0.00     0.046 A   
ATOM     20  N6  UNL     1      -0.891  -0.429  -2.800  1.00  0.00    -0.132 NA  
ATOM     21  N2  UNL     1       0.271   1.268  -2.150  1.00  0.00    -0.208 N   
ATOM     22  N5  UNL     1      -0.882   0.892  -2.737  1.00  0.00    -0.076 NA  
ATOM     23  H18 UNL     1       1.998   0.268  -1.346  1.00  0.00     0.083 HD  
BRANCH  21  24
ATOM     24  C15 UNL     1       0.577   2.675  -1.935  1.00  0.00     0.169 C   
BRANCH  24  25
ATOM     25  C16 UNL     1       0.480   3.060  -0.480  1.00  0.00    -0.025 A   
ATOM     26  C17 UNL     1      -0.858   3.126   0.113  1.00  0.00     0.023 A   
ATOM     27  C22 UNL     1       1.571   3.361   0.262  1.00  0.00     0.031 A   
ATOM     28  C18 UNL     1      -0.988   3.458   1.407  1.00  0.00     0.102 A   
ATOM     29  C21 UNL     1       1.425   3.708   1.635  1.00  0.00     0.058 A   
ATOM     30  N3  UNL     1       0.138   3.741   2.177  1.00  0.00    -0.201 N   
ATOM     31  C20 UNL     1       2.293   4.053   2.643  1.00  0.00     0.047 A   
ATOM     32  N4  UNL     1       0.178   4.054   3.497  1.00  0.00    -0.185 NA  
ATOM     33  C19 UNL     1       1.469   4.261   3.760  1.00  0.00     0.133 A   
ENDBRANCH  24  25
ENDBRANCH  21  24
ENDBRANCH   1  18
TORSDOF 7
