REMARK SMILES CC(C)[C@H]([NH2+]Cc1ccc2c(c1)OCO2)c1cn(CCN(C)c2ccccc2)nn1
REMARK SMILES IDX 16 1 17 2 18 3 29 4 30 5 4 7 2 8 1 9 3 10 5 11 6 14 7 15
REMARK SMILES IDX 8 16 12 17 9 18 11 19 10 20 13 21 15 22 14 23 19 24 20 25
REMARK SMILES IDX 21 26 22 27 23 28 24 29 28 30 25 31 27 32 26 33
REMARK H PARENT 17 6 5 12 5 13
ROOT
ATOM     1   C13 UNL     1       0.603  -1.115   0.472  1.00  0.00     0.127 A   
ATOM     2   C14 UNL     1       1.791  -0.673  -0.066  1.00  0.00     0.045 A   
ATOM     3   N2  UNL     1       2.184  -1.706  -0.870  1.00  0.00    -0.211 N   
ATOM     4   N4  UNL     1       1.368  -2.765  -0.733  1.00  0.00    -0.076 NA  
ATOM     5   N5  UNL     1       0.369  -2.398   0.054  1.00  0.00    -0.132 NA  
ATOM     6   H18 UNL     1       2.306   0.276  -0.053  1.00  0.00     0.083 HD  
ENDROOT
BRANCH   1   7
ATOM     7   C4  UNL     1      -0.450  -0.358   1.213  1.00  0.00     0.117 C   
BRANCH   7   8
ATOM     8   C2  UNL     1      -0.799  -0.934   2.608  1.00  0.00     0.037 C   
ATOM     9   C1  UNL     1       0.429  -0.933   3.528  1.00  0.00     0.014 C   
ATOM     10  C3  UNL     1      -1.440  -2.326   2.604  1.00  0.00     0.014 C   
ENDBRANCH   7   8
BRANCH   7  11
ATOM     11  N1  UNL     1      -1.657  -0.291   0.306  1.00  0.00     0.249 N   
ATOM     12  H9  UNL     1      -1.322   0.059  -0.606  1.00  0.00     0.199 HD  
ATOM     13  H10 UNL     1      -1.943  -1.258   0.101  1.00  0.00     0.199 HD  
BRANCH  11  14
ATOM     14  C5  UNL     1      -2.825   0.527   0.715  1.00  0.00     0.164 C   
BRANCH  14  15
ATOM     15  C6  UNL     1      -2.502   1.982   0.905  1.00  0.00    -0.002 A   
ATOM     16  C7  UNL     1      -2.272   2.817  -0.215  1.00  0.00     0.012 A   
ATOM     17  C11 UNL     1      -2.395   2.523   2.199  1.00  0.00     0.045 A   
ATOM     18  C8  UNL     1      -1.939   4.166  -0.054  1.00  0.00     0.037 A   
ATOM     19  C10 UNL     1      -2.059   3.854   2.323  1.00  0.00     0.109 A   
ATOM     20  C9  UNL     1      -1.838   4.654   1.228  1.00  0.00     0.108 A   
ATOM     21  O1  UNL     1      -1.902   4.522   3.496  1.00  0.00    -0.316 OA  
ATOM     22  O2  UNL     1      -1.522   5.928   1.574  1.00  0.00    -0.316 OA  
ATOM     23  C12 UNL     1      -1.575   5.846   3.015  1.00  0.00     0.337 C   
ENDBRANCH  14  15
ENDBRANCH  11  14
ENDBRANCH   7  11
ENDBRANCH   1   7
BRANCH   3  24
ATOM     24  C15 UNL     1       3.196  -1.679  -1.903  1.00  0.00     0.153 C   
BRANCH  24  25
ATOM     25  C16 UNL     1       2.604  -1.380  -3.285  1.00  0.00     0.126 C   
BRANCH  25  26
ATOM     26  N3  UNL     1       1.917  -0.067  -3.317  1.00  0.00    -0.332 N   
ATOM     27  C17 UNL     1       2.761   1.069  -3.702  1.00  0.00     0.130 C   
BRANCH  26  28
ATOM     28  C18 UNL     1       0.527   0.042  -3.414  1.00  0.00     0.028 A   
ATOM     29  C19 UNL     1      -0.341  -1.049  -3.218  1.00  0.00     0.023 A   
ATOM     30  C23 UNL     1      -0.107   1.269  -3.689  1.00  0.00     0.023 A   
ATOM     31  C20 UNL     1      -1.736  -0.939  -3.324  1.00  0.00     0.002 A   
ATOM     32  C22 UNL     1      -1.500   1.392  -3.800  1.00  0.00     0.002 A   
ATOM     33  C21 UNL     1      -2.318   0.285  -3.618  1.00  0.00     0.000 A   
ENDBRANCH  26  28
ENDBRANCH  25  26
ENDBRANCH  24  25
ENDBRANCH   3  24
TORSDOF 9
