REMARK SMILES Fc1cc(F)c(F)c(OCCCn2cc([C@@H]([NH2+]Cc3ccc4c(c3)OCO4)C3CCCCC3)nn2)c1F
REMARK SMILES IDX 13 1 14 2 15 3 34 4 35 5 12 7 11 8 10 9 9 10 8 11 1 12 2 13
REMARK SMILES IDX 3 14 36 15 4 16 37 17 5 18 6 19 7 20 16 21 17 22 18 25 19 26
REMARK SMILES IDX 20 27 24 28 21 29 23 30 22 31 25 32 27 33 26 34 28 35 29 36
REMARK SMILES IDX 33 37 30 38 32 39 31 40
REMARK H PARENT 14 6 17 23 17 24
REMARK Flexibility Score: inf
ROOT
ATOM      1  N   MOL     1      -1.793   1.588  -2.107  1.00  0.00    -0.252 N 
ATOM      2  C   MOL     1      -2.733   0.607  -1.940  1.00  0.00     0.055 A 
ATOM      3  C   MOL     1      -2.098  -0.345  -1.165  1.00  0.00     0.140 A 
ATOM      4  N   MOL     1      -0.817   0.066  -0.933  1.00  0.00    -0.129 NA
ATOM      5  N   MOL     1      -0.640   1.237  -1.519  1.00  0.00    -0.067 NA
ATOM      6  H   MOL     1      -3.737   0.701  -2.329  1.00  0.00     0.086 HD
ENDROOT
BRANCH   1   7
ATOM      7  C   MOL     1      -1.971   2.885  -2.724  1.00  0.00     0.149 C 
BRANCH   7   8
ATOM      8  C   MOL     1      -0.794   3.396  -3.561  1.00  0.00     0.065 C 
BRANCH   8   9
ATOM      9  C   MOL     1       0.376   3.941  -2.738  1.00  0.00     0.232 C 
BRANCH   9  10
ATOM     10  O   MOL     1      -0.133   4.903  -1.816  1.00  0.00    -0.487 OA
BRANCH  10  11
ATOM     11  C   MOL     1       0.692   5.297  -0.797  1.00  0.00     0.196 A 
ATOM     12  F   MOL     1       0.147   6.967   2.402  1.00  0.00    -0.203 F 
ATOM     13  C   MOL     1       0.780   6.381   1.377  1.00  0.00     0.165 A 
ATOM     14  C   MOL     1       2.160   6.240   1.421  1.00  0.00     0.085 A 
ATOM     15  C   MOL     1       0.054   5.919   0.281  1.00  0.00     0.203 A 
ATOM     16  C   MOL     1       2.800   5.627   0.352  1.00  0.00     0.165 A 
ATOM     17  F   MOL     1      -1.282   6.061   0.274  1.00  0.00    -0.199 F 
ATOM     18  F   MOL     1       4.132   5.485   0.384  1.00  0.00    -0.203 F 
ATOM     19  C   MOL     1       2.081   5.160  -0.750  1.00  0.00     0.203 A 
ATOM     20  F   MOL     1       2.759   4.591  -1.758  1.00  0.00    -0.199 F 
ENDBRANCH  10  11
ENDBRANCH   9  10
ENDBRANCH   8   9
ENDBRANCH   7   8
ENDBRANCH   1   7
BRANCH   3  21
ATOM     21  C   MOL     1      -2.610  -1.629  -0.601  1.00  0.00     0.239 C 
BRANCH  21  22
ATOM     22  N   MOL     1      -1.956  -2.909  -1.092  1.00  0.00    -0.335 N 
ATOM     23  H   MOL     1      -2.564  -3.276  -1.832  1.00  0.00     0.347 HD
ATOM     24  H   MOL     1      -1.985  -3.607  -0.342  1.00  0.00     0.347 HD
BRANCH  22  25
ATOM     25  C   MOL     1      -0.573  -2.902  -1.671  1.00  0.00     0.298 C 
BRANCH  25  26
ATOM     26  C   MOL     1       0.524  -3.138  -0.672  1.00  0.00     0.010 A 
ATOM     27  C   MOL     1       0.635  -4.384  -0.005  1.00  0.00     0.013 A 
ATOM     28  C   MOL     1       1.471  -2.134  -0.407  1.00  0.00     0.060 A 
ATOM     29  C   MOL     1       1.653  -4.616   0.929  1.00  0.00     0.051 A 
ATOM     30  C   MOL     1       2.463  -2.394   0.517  1.00  0.00     0.166 A 
ATOM     31  C   MOL     1       2.549  -3.598   1.171  1.00  0.00     0.165 A 
ATOM     32  O   MOL     1       3.446  -1.531   0.886  1.00  0.00    -0.454 OA
ATOM     33  O   MOL     1       3.598  -3.646   2.034  1.00  0.00    -0.454 OA
ATOM     34  C   MOL     1       4.178  -2.338   1.836  1.00  0.00     0.468 C 
ENDBRANCH  25  26
ENDBRANCH  22  25
ENDBRANCH  21  22
BRANCH  21  35
ATOM     35  C   MOL     1      -2.784  -1.658   0.949  1.00  0.00     0.054 C 
ATOM     36  C   MOL     1      -1.470  -1.709   1.750  1.00  0.00     0.010 C 
ATOM     37  C   MOL     1      -3.729  -0.539   1.456  1.00  0.00     0.010 C 
ATOM     38  C   MOL     1      -1.690  -1.346   3.215  1.00  0.00     0.001 C 
ATOM     39  C   MOL     1      -2.991   0.590   2.166  1.00  0.00     0.001 C 
ATOM     40  C   MOL     1      -2.199   0.086   3.373  1.00  0.00     0.000 C 
ENDBRANCH  21  35
ENDBRANCH   3  21
TORSDOF 10
