REMARK SMILES NC(=[NH2+])NCCC[C@@H](C(=O)[O-])n1cc([C@@H]([NH2+]Cc2ccc3c(c2)OCO3)C2CCCCC2)nn1
REMARK SMILES IDX 12 1 13 2 14 3 33 4 34 5 8 7 7 8 6 9 5 10 4 11 1 12 2 13
REMARK SMILES IDX 3 16 9 20 10 21 11 22 15 23 16 24 17 27 18 28 19 29 23 30
REMARK SMILES IDX 20 31 22 32 21 33 24 34 26 35 25 36 27 37 28 38 32 39 29 40
REMARK SMILES IDX 31 41 30 42
REMARK H PARENT 13 6 1 14 1 15 3 17 3 18 4 19 16 25 16 26
REMARK Flexibility Score: inf
ROOT
ATOM      1  N   MOL     1       1.512   2.531  -1.143  1.00  0.00    -0.243 N 
ATOM      2  C   MOL     1       1.554   1.286  -1.719  1.00  0.00     0.055 A 
ATOM      3  C   MOL     1       0.315   0.761  -1.451  1.00  0.00     0.140 A 
ATOM      4  N   MOL     1      -0.309   1.551  -0.513  1.00  0.00    -0.129 NA
ATOM      5  N   MOL     1       0.459   2.609  -0.294  1.00  0.00    -0.066 NA
ATOM      6  H   MOL     1       2.356   0.989  -2.385  1.00  0.00     0.086 HD
ENDROOT
BRANCH   1   7
ATOM      7  C   MOL     1       2.308   3.710  -1.425  1.00  0.00     0.155 C 
BRANCH   7   8
ATOM      8  C   MOL     1       3.409   4.005  -0.398  1.00  0.00     0.037 C 
BRANCH   8   9
ATOM      9  C   MOL     1       2.870   4.442   0.964  1.00  0.00     0.040 C 
BRANCH   9  10
ATOM     10  C   MOL     1       3.940   5.175   1.765  1.00  0.00     0.197 C 
BRANCH  10  11
ATOM     11  N   MOL     1       3.474   5.453   3.133  1.00  0.00    -0.278 N 
ATOM     12  N   MOL     1       3.068   4.966   5.354  1.00  0.00    -0.291 N 
ATOM     13  C   MOL     1       3.563   4.603   4.167  1.00  0.00     0.338 C 
ATOM     14  H   MOL     1       2.591   5.848   5.477  1.00  0.00     0.256 HD
ATOM     15  H   MOL     1       3.146   4.364   6.163  1.00  0.00     0.256 HD
ATOM     16  N   MOL     1       4.127   3.398   4.053  1.00  0.00    -0.291 N 
ATOM     17  H   MOL     1       4.190   2.757   4.832  1.00  0.00     0.256 HD
ATOM     18  H   MOL     1       4.501   3.082   3.167  1.00  0.00     0.256 HD
ATOM     19  H   MOL     1       3.082   6.369   3.306  1.00  0.00     0.260 HD
ENDBRANCH  10  11
ENDBRANCH   9  10
ENDBRANCH   8   9
ENDBRANCH   7   8
BRANCH   7  20
ATOM     20  C   MOL     1       2.896   3.515  -2.826  1.00  0.00     0.066 C 
ATOM     21  O   MOL     1       4.081   3.071  -2.866  1.00  0.00    -0.548 OA
ATOM     22  O   MOL     1       2.106   3.767  -3.777  1.00  0.00    -0.548 OA
ENDBRANCH   7  20
ENDBRANCH   1   7
BRANCH   3  23
ATOM     23  C   MOL     1      -0.379  -0.459  -1.981  1.00  0.00     0.239 C 
BRANCH  23  24
ATOM     24  N   MOL     1      -1.304  -0.946  -0.889  1.00  0.00    -0.335 N 
ATOM     25  H   MOL     1      -1.691  -0.088  -0.462  1.00  0.00     0.347 HD
ATOM     26  H   MOL     1      -2.112  -1.462  -1.234  1.00  0.00     0.347 HD
BRANCH  24  27
ATOM     27  C   MOL     1      -0.643  -1.733   0.182  1.00  0.00     0.298 C 
BRANCH  27  28
ATOM     28  C   MOL     1      -1.534  -1.834   1.390  1.00  0.00     0.010 A 
ATOM     29  C   MOL     1      -2.395  -2.944   1.569  1.00  0.00     0.013 A 
ATOM     30  C   MOL     1      -1.552  -0.785   2.328  1.00  0.00     0.060 A 
ATOM     31  C   MOL     1      -3.248  -3.019   2.676  1.00  0.00     0.051 A 
ATOM     32  C   MOL     1      -2.405  -0.891   3.406  1.00  0.00     0.166 A 
ATOM     33  C   MOL     1      -3.227  -1.977   3.578  1.00  0.00     0.165 A 
ATOM     34  O   MOL     1      -2.546   0.030   4.397  1.00  0.00    -0.454 OA
ATOM     35  O   MOL     1      -3.978  -1.884   4.706  1.00  0.00    -0.454 OA
ATOM     36  C   MOL     1      -3.567  -0.596   5.207  1.00  0.00     0.468 C 
ENDBRANCH  27  28
ENDBRANCH  24  27
ENDBRANCH  23  24
BRANCH  23  37
ATOM     37  C   MOL     1      -1.196  -0.166  -3.281  1.00  0.00     0.054 C 
ATOM     38  C   MOL     1      -2.134  -1.305  -3.724  1.00  0.00     0.010 C 
ATOM     39  C   MOL     1      -0.279   0.186  -4.485  1.00  0.00     0.010 C 
ATOM     40  C   MOL     1      -1.378  -2.590  -4.061  1.00  0.00     0.001 C 
ATOM     41  C   MOL     1      -0.029  -0.969  -5.465  1.00  0.00     0.001 C 
ATOM     42  C   MOL     1      -0.057  -2.334  -4.789  1.00  0.00     0.000 C 
ENDBRANCH  23  37
ENDBRANCH   3  23
TORSDOF 11
